
  Mrv2101 10312211263D          

256295  0  0  0  0            999 V2000
   -6.3235  -13.6383   -9.6211 C   0  0  0  0  0  0  0  0  0  0  0  0
   -7.0958  -14.5206  -10.4283 C   0  0  0  0  0  0  0  0  0  0  0  0
   -4.8547  -11.8333   -7.9933 C   0  0  0  0  0  0  0  0  0  0  0  0
   -4.5692  -11.9141   -9.3866 C   0  0  0  0  0  0  0  0  0  0  0  0
   -5.3224  -12.8068  -10.1989 C   0  0  0  0  0  0  0  0  0  0  0  0
   -5.0975  -12.8499  -11.5979 C   0  0  0  0  0  0  0  0  0  0  0  0
   -3.5537  -11.0957   -9.9639 C   0  0  0  0  0  0  0  0  0  0  0  0
   -2.8427  -10.2292   -9.0925 C   0  0  0  0  0  0  0  0  0  0  0  0
   -3.1388  -10.0986   -7.7176 C   0  0  0  0  0  0  0  0  0  0  0  0
   -4.3884   -9.4769   -3.6936 C   0  0  0  0  0  0  0  0  0  0  0  0
   -3.9000   -9.7478   -5.0053 C   0  0  0  0  0  0  0  0  0  0  0  0
   -2.7789   -9.0388   -5.5133 C   0  0  0  0  0  0  0  0  0  0  0  0
   -2.0538   -8.2054   -4.6237 C   0  0  0  0  0  0  0  0  0  0  0  0
   -2.4726   -7.9901   -3.2876 C   0  0  0  0  0  0  0  0  0  0  0  0
   -3.6799   -8.5855   -2.8600 C   0  0  0  0  0  0  0  0  0  0  0  0
   -6.0447  -13.5565  -12.3867 C   0  0  0  0  0  0  0  0  0  0  0  0
   -6.8938  -14.5520  -11.8284 C   0  0  0  0  0  0  0  0  0  0  0  0
   -4.1738  -10.8939   -7.1733 C   0  0  0  0  0  0  0  0  0  0  0  0
   -0.8947   -7.6243   -5.0332 O   0  0  0  0  0  0  0  0  0  0  0  0
   -0.0895   -6.8619   -4.2526 C   0  0  0  0  0  0  0  0  0  0  0  0
   -8.0967  -15.3452   -9.8454 C   0  0  0  0  0  0  0  0  0  0  0  0
   -8.3223  -15.2982   -8.4496 C   0  0  0  0  0  0  0  0  0  0  0  0
   -8.8748  -16.2201  -10.6476 C   0  0  0  0  0  0  0  0  0  0  0  0
   -9.8839  -17.0173  -10.0403 C   0  0  0  0  0  0  0  0  0  0  0  0
  -10.1735  -16.9070   -8.6524 C   0  0  0  0  0  0  0  0  0  0  0  0
   -9.3648  -16.0635   -7.8549 C   0  0  0  0  0  0  0  0  0  0  0  0
   -0.4514   -6.6070   -2.9050 C   0  0  0  0  0  0  0  0  0  0  0  0
    0.4172   -5.7978   -2.1199 C   0  0  0  0  0  0  0  0  0  0  0  0
    1.6558   -5.3836   -2.6655 C   0  0  0  0  0  0  0  0  0  0  0  0
    2.0044   -5.6673   -3.9937 C   0  0  0  0  0  0  0  0  0  0  0  0
    1.1053   -6.3715   -4.8126 C   0  0  0  0  0  0  0  0  0  0  0  0
  -10.5663  -17.9810  -10.8116 C   0  0  0  0  0  0  0  0  0  0  0  0
   -8.6162  -16.3256  -12.0434 C   0  0  0  0  0  0  0  0  0  0  0  0
   -9.3516  -17.2407  -12.8595 C   0  0  0  0  0  0  0  0  0  0  0  0
   -5.5767  -10.1010   -3.2515 C   0  0  0  0  0  0  0  0  0  0  0  0
   -6.2328  -13.1727  -13.6944 O   0  0  0  0  0  0  0  0  0  0  0  0
   -7.2314  -12.1445  -13.8426 C   0  0  0  0  0  0  0  0  0  0  0  0
    0.1017   -5.4408   -0.8264 O   0  0  0  0  0  0  0  0  0  0  0  0
   -0.3303   -4.1348   -0.7268 C   0  0  0  0  0  0  0  0  0  0  0  0
   -9.5807  -16.0121   -6.4543 C   0  0  0  0  0  0  0  0  0  0  0  0
  -14.1115  -19.9008   -9.0884 C   0  0  0  0  0  0  0  0  0  0  0  0
  -13.1623  -19.1837   -8.2899 C   0  0  0  0  0  0  0  0  0  0  0  0
  -15.1666  -20.6319   -8.5125 C   0  0  0  0  0  0  0  0  0  0  0  0
  -15.4785  -20.4043   -7.1704 C   0  0  0  0  0  0  0  0  0  0  0  0
  -14.6990  -19.5233   -6.4035 C   0  0  0  0  0  0  0  0  0  0  0  0
  -13.4409  -19.0338   -6.8846 C   0  0  0  0  0  0  0  0  0  0  0  0
  -11.9935  -18.5663   -8.8466 C   0  0  0  0  0  0  0  0  0  0  0  0
  -11.5337  -18.7912  -10.1716 C   0  0  0  0  0  0  0  0  0  0  0  0
  -11.2284  -17.6654   -8.0566 C   0  0  0  0  0  0  0  0  0  0  0  0
  -11.5118  -17.5253   -6.6689 C   0  0  0  0  0  0  0  0  0  0  0  0
  -10.7684  -16.5810   -5.9027 C   0  0  0  0  0  0  0  0  0  0  0  0
  -15.2802  -19.1526   -5.2170 O   0  0  0  0  0  0  0  0  0  0  0  0
  -16.0123  -17.9160   -5.2996 C   0  0  0  0  0  0  0  0  0  0  0  0
   -8.5553  -15.4263   -5.6670 C   0  0  0  0  0  0  0  0  0  0  0  0
   -7.6458  -14.5175   -6.2416 C   0  0  0  0  0  0  0  0  0  0  0  0
   -8.4258  -15.7195   -4.4524 O   0  0  0  0  0  0  0  0  0  0  0  0
   -3.9762  -12.1621  -12.1494 C   0  0  0  0  0  0  0  0  0  0  0  0
   -3.2611  -11.2075  -11.3602 C   0  0  0  0  0  0  0  0  0  0  0  0
  -12.5207  -18.3227   -6.0422 C   0  0  0  0  0  0  0  0  0  0  0  0
   -7.5768  -15.5366  -12.6047 C   0  0  0  0  0  0  0  0  0  0  0  0
   -7.5102  -14.4635   -7.6445 C   0  0  0  0  0  0  0  0  0  0  0  0
   -6.5453  -13.6010   -8.2249 C   0  0  0  0  0  0  0  0  0  0  0  0
   -5.8217  -12.6913   -7.4093 C   0  0  0  0  0  0  0  0  0  0  0  0
   -2.4582  -11.7220  -14.0566 C   0  0  0  0  0  0  0  0  0  0  0  0
   -3.4990  -12.4491  -13.4588 C   0  0  0  0  0  0  0  0  0  0  0  0
   -2.2678  -10.4231  -12.0159 C   0  0  0  0  0  0  0  0  0  0  0  0
   -1.8653  -10.6748  -13.3385 C   0  0  0  0  0  0  0  0  0  0  0  0
   -9.1083  -17.2525  -14.2786 C   0  0  0  0  0  0  0  0  0  0  0  0
   -7.9700  -16.5875  -14.8253 C   0  0  0  0  0  0  0  0  0  0  0  0
   -7.1915  -15.8253  -13.9286 C   0  0  0  0  0  0  0  0  0  0  0  0
   -9.9666  -17.8849  -15.2091 C   0  0  0  0  0  0  0  0  0  0  0  0
   -9.6281  -18.0571  -16.5597 C   0  0  0  0  0  0  0  0  0  0  0  0
   -8.4073  -17.5511  -17.0741 C   0  0  0  0  0  0  0  0  0  0  0  0
   -7.6406  -16.6945  -16.2199 C   0  0  0  0  0  0  0  0  0  0  0  0
   -7.9579  -17.8225  -18.4085 C   0  0  0  0  0  0  0  0  0  0  0  0
   -6.8840  -17.0743  -18.9397 C   0  0  0  0  0  0  0  0  0  0  0  0
   -6.2248  -16.1137  -18.1659 C   0  0  0  0  0  0  0  0  0  0  0  0
   -6.5860  -15.9542  -16.8224 C   0  0  0  0  0  0  0  0  0  0  0  0
  -12.5371  -18.3235   -4.6042 C   0  0  0  0  0  0  0  0  0  0  0  0
  -12.0438  -17.1876   -3.9082 C   0  0  0  0  0  0  0  0  0  0  0  0
  -11.2712  -16.2397   -4.6138 C   0  0  0  0  0  0  0  0  0  0  0  0
  -12.2876  -17.0003   -2.5139 C   0  0  0  0  0  0  0  0  0  0  0  0
  -11.9049  -15.7915   -1.8674 C   0  0  0  0  0  0  0  0  0  0  0  0
  -11.2521  -14.7988   -2.6137 C   0  0  0  0  0  0  0  0  0  0  0  0
  -11.0147  -14.9998   -3.9860 C   0  0  0  0  0  0  0  0  0  0  0  0
  -12.8780  -18.0390   -1.7552 C   0  0  0  0  0  0  0  0  0  0  0  0
  -13.1901  -19.2519   -2.4120 C   0  0  0  0  0  0  0  0  0  0  0  0
  -12.9967  -19.3954   -3.7992 C   0  0  0  0  0  0  0  0  0  0  0  0
  -12.7106  -16.6253    0.2603 C   0  0  0  0  0  0  0  0  0  0  0  0
  -12.1281  -15.5693   -0.4846 C   0  0  0  0  0  0  0  0  0  0  0  0
   -7.5426   -9.8633   -1.7315 C   0  0  0  0  0  0  0  0  0  0  0  0
   -8.6373  -10.1952   -2.5684 C   0  0  0  0  0  0  0  0  0  0  0  0
   -6.0317  -11.2207   -3.9692 C   0  0  0  0  0  0  0  0  0  0  0  0
   -9.7903  -10.7612   -1.9969 C   0  0  0  0  0  0  0  0  0  0  0  0
   -9.8515  -11.0555   -0.6130 C   0  0  0  0  0  0  0  0  0  0  0  0
   -9.0529  -10.1916    0.1850 C   0  0  0  0  0  0  0  0  0  0  0  0
   -7.8274   -9.7176   -0.3613 C   0  0  0  0  0  0  0  0  0  0  0  0
  -10.6344  -12.0879    0.0114 C   0  0  0  0  0  0  0  0  0  0  0  0
  -10.9449  -11.8932    1.3937 C   0  0  0  0  0  0  0  0  0  0  0  0
  -10.4631  -10.7366    2.0961 C   0  0  0  0  0  0  0  0  0  0  0  0
   -9.5257   -9.8600    1.4759 C   0  0  0  0  0  0  0  0  0  0  0  0
  -11.0715  -13.3120   -0.6180 C   0  0  0  0  0  0  0  0  0  0  0  0
  -10.7786  -13.6477   -1.9663 C   0  0  0  0  0  0  0  0  0  0  0  0
  -11.7518  -14.3269    0.1359 C   0  0  0  0  0  0  0  0  0  0  0  0
  -12.0157  -14.1320    1.5263 C   0  0  0  0  0  0  0  0  0  0  0  0
  -11.7652  -12.8369    2.0796 C   0  0  0  0  0  0  0  0  0  0  0  0
  -12.4666  -15.2607    2.2936 C   0  0  0  0  0  0  0  0  0  0  0  0
  -12.8543  -16.4522    1.6459 C   0  0  0  0  0  0  0  0  0  0  0  0
  -12.3413  -12.4131    3.3001 C   0  0  0  0  0  0  0  0  0  0  0  0
  -11.9076  -11.2729    3.9856 C   0  0  0  0  0  0  0  0  0  0  0  0
  -10.9113  -10.4512    3.4195 C   0  0  0  0  0  0  0  0  0  0  0  0
  -10.3802   -9.3430    4.1213 C   0  0  0  0  0  0  0  0  0  0  0  0
   -9.5301   -8.4458    3.4690 C   0  0  0  0  0  0  0  0  0  0  0  0
   -9.1459   -8.6075    2.0975 C   0  0  0  0  0  0  0  0  0  0  0  0
   -4.5406  -10.7297   -5.8122 C   0  0  0  0  0  0  0  0  0  0  0  0
   -2.4242   -9.2060   -6.8781 C   0  0  0  0  0  0  0  0  0  0  0  0
   -5.5464  -11.5568   -5.2523 C   0  0  0  0  0  0  0  0  0  0  0  0
  -10.6685   -9.0578    5.4187 O   0  0  0  0  0  0  0  0  0  0  0  0
  -12.4890  -10.9957    5.1839 O   0  0  0  0  0  0  0  0  0  0  0  0
   -8.4935  -18.8561  -19.2267 C   0  0  0  0  0  0  0  0  0  0  0  0
   -8.5592  -20.0137  -18.7498 O   0  0  0  0  0  0  0  0  0  0  0  0
   -8.9745  -18.6342  -20.6063 C   0  0  0  0  0  0  0  0  0  0  0  0
   -0.8837   -9.9360  -13.9151 O   0  0  0  0  0  0  0  0  0  0  0  0
   -6.0839  -12.6290   -6.0140 C   0  0  0  0  0  0  0  0  0  0  0  0
   -5.2028  -15.3736  -18.6967 O   0  0  0  0  0  0  0  0  0  0  0  0
   -5.6386  -14.1024  -19.2130 C   0  0  0  0  0  0  0  0  0  0  0  0
   -1.9949  -12.0809  -15.2973 O   0  0  0  0  0  0  0  0  0  0  0  0
   -2.7238  -11.4903  -16.3866 C   0  0  0  0  0  0  0  0  0  0  0  0
   -6.9015  -13.6309   -5.4446 C   0  0  0  0  0  0  0  0  0  0  0  0
   -6.2492   -9.6546   -2.1418 O   0  0  0  0  0  0  0  0  0  0  0  0
   -1.6523   -7.2043   -2.4363 C   0  0  0  0  0  0  0  0  0  0  0  0
   -1.9832   -7.0768   -1.2333 O   0  0  0  0  0  0  0  0  0  0  0  0
  -10.2559  -18.1189  -12.1896 C   0  0  0  0  0  0  0  0  0  0  0  0
  -10.7739  -19.0885  -12.7920 O   0  0  0  0  0  0  0  0  0  0  0  0
    3.2101   -5.2547   -4.4617 O   0  0  0  0  0  0  0  0  0  0  0  0
  -13.0893  -17.8420   -0.3690 C   0  0  0  0  0  0  0  0  0  0  0  0
  -13.6518  -18.8379    0.3682 O   0  0  0  0  0  0  0  0  0  0  0  0
  -12.4341  -15.3430    3.7164 C   0  0  0  0  0  0  0  0  0  0  0  0
  -13.5896  -15.7471    4.5463 C   0  0  0  0  0  0  0  0  0  0  0  0
  -11.3661  -15.0610    4.3093 O   0  0  0  0  0  0  0  0  0  0  0  0
  -15.9512  -21.4853   -9.2526 O   0  0  0  0  0  0  0  0  0  0  0  0
  -14.1561  -19.8822  -10.4435 O   0  0  0  0  0  0  0  0  0  0  0  0
  -10.5426  -18.6844  -17.3492 O   0  0  0  0  0  0  0  0  0  0  0  0
   -8.6380   -9.9924   -3.9120 O   0  0  0  0  0  0  0  0  0  0  0  0
  -15.3688  -22.7247   -9.3608 C   0  0  0  0  0  0  0  0  0  0  0  0
    1.4120   -6.6156   -6.1250 O   0  0  0  0  0  0  0  0  0  0  0  0
    0.8629   -5.6313   -7.0219 C   0  0  0  0  0  0  0  0  0  0  0  0
   -8.4896   -7.5255    1.3838 O   0  0  0  0  0  0  0  0  0  0  0  0
   -9.4922   -6.6626    0.8927 C   0  0  0  0  0  0  0  0  0  0  0  0
  -14.5238  -23.0234  -10.4512 C   0  0  0  0  0  0  0  0  0  0  0  0
  -13.8814  -24.2738  -10.5455 C   0  0  0  0  0  0  0  0  0  0  0  0
  -14.1443  -25.2633   -9.5782 C   0  0  0  0  0  0  0  0  0  0  0  0
  -15.0084  -24.9906   -8.4982 C   0  0  0  0  0  0  0  0  0  0  0  0
  -15.6208  -23.7238   -8.3964 C   0  0  0  0  0  0  0  0  0  0  0  0
   -9.8474   -6.8163   -0.4654 C   0  0  0  0  0  0  0  0  0  0  0  0
  -10.9045   -6.0867   -1.0469 C   0  0  0  0  0  0  0  0  0  0  0  0
  -11.5788   -5.1066   -0.2881 C   0  0  0  0  0  0  0  0  0  0  0  0
  -11.2204   -4.8935    1.0553 C   0  0  0  0  0  0  0  0  0  0  0  0
  -10.1937   -5.6560    1.6405 C   0  0  0  0  0  0  0  0  0  0  0  0
    0.5398   -3.0969   -0.2963 C   0  0  0  0  0  0  0  0  0  0  0  0
    0.0934   -1.7362   -0.2787 C   0  0  0  0  0  0  0  0  0  0  0  0
   -1.2465   -1.4644   -0.6626 C   0  0  0  0  0  0  0  0  0  0  0  0
   -2.1225   -2.4980   -1.0205 C   0  0  0  0  0  0  0  0  0  0  0  0
   -1.6685   -3.8218   -1.0445 C   0  0  0  0  0  0  0  0  0  0  0  0
    0.9970   -0.7001    0.1095 C   0  0  0  0  0  0  0  0  0  0  0  0
    2.3428   -1.0310    0.4037 C   0  0  0  0  0  0  0  0  0  0  0  0
    2.7637   -2.3711    0.4171 C   0  0  0  0  0  0  0  0  0  0  0  0
    1.8590   -3.3941    0.1146 C   0  0  0  0  0  0  0  0  0  0  0  0
  -12.5738   -4.3572   -0.8277 O   0  0  0  0  0  0  0  0  0  0  0  0
    0.5846    0.6542    0.2578 C   0  0  0  0  0  0  0  0  0  0  0  0
   -0.3320    0.9144    1.0735 O   0  0  0  0  0  0  0  0  0  0  0  0
    1.2071    1.7789   -0.4683 C   0  0  0  0  0  0  0  0  0  0  0  0
    3.2515   -0.0714    0.7200 O   0  0  0  0  0  0  0  0  0  0  0  0
  -15.2647  -25.9596   -7.5668 O   0  0  0  0  0  0  0  0  0  0  0  0
  -14.3356  -25.9373   -6.4685 C   0  0  0  0  0  0  0  0  0  0  0  0
  -13.0177  -24.5288  -11.5763 O   0  0  0  0  0  0  0  0  0  0  0  0
  -11.6802  -24.0682  -11.3029 C   0  0  0  0  0  0  0  0  0  0  0  0
  -11.2613   -6.3335   -2.3453 O   0  0  0  0  0  0  0  0  0  0  0  0
  -12.1907   -7.4290   -2.4585 C   0  0  0  0  0  0  0  0  0  0  0  0
   -1.4753   -8.5465   -7.3685 O   0  0  0  0  0  0  0  0  0  0  0  0
   -2.0751   -9.6687   -9.4493 H   0  0  0  0  0  0  0  0  0  0  0  0
   -4.0295   -8.3932   -1.9174 H   0  0  0  0  0  0  0  0  0  0  0  0
    2.3251   -4.8693   -2.0977 H   0  0  0  0  0  0  0  0  0  0  0  0
   -7.3461  -11.9335  -14.9057 H   0  0  0  0  0  0  0  0  0  0  0  0
   -8.2026  -12.4653  -13.4559 H   0  0  0  0  0  0  0  0  0  0  0  0
   -6.9292  -11.2204  -13.3431 H   0  0  0  0  0  0  0  0  0  0  0  0
  -16.3072  -20.8485   -6.7646 H   0  0  0  0  0  0  0  0  0  0  0  0
  -11.9003  -19.5741  -10.7034 H   0  0  0  0  0  0  0  0  0  0  0  0
  -16.4367  -17.7066   -4.3174 H   0  0  0  0  0  0  0  0  0  0  0  0
  -15.3617  -17.0814   -5.5728 H   0  0  0  0  0  0  0  0  0  0  0  0
  -16.8345  -17.9879   -6.0164 H   0  0  0  0  0  0  0  0  0  0  0  0
   -3.8764  -13.2262  -14.0016 H   0  0  0  0  0  0  0  0  0  0  0  0
   -1.7986   -9.6509  -11.5494 H   0  0  0  0  0  0  0  0  0  0  0  0
   -6.2882  -15.4792  -14.2284 H   0  0  0  0  0  0  0  0  0  0  0  0
  -10.8834  -18.2234  -14.9276 H   0  0  0  0  0  0  0  0  0  0  0  0
   -6.5559  -17.2240  -19.8971 H   0  0  0  0  0  0  0  0  0  0  0  0
   -6.0505  -15.2588  -16.3112 H   0  0  0  0  0  0  0  0  0  0  0  0
  -10.6156  -14.2329   -4.5320 H   0  0  0  0  0  0  0  0  0  0  0  0
  -13.5636  -20.0483   -1.8895 H   0  0  0  0  0  0  0  0  0  0  0  0
  -13.2059  -20.3031   -4.2226 H   0  0  0  0  0  0  0  0  0  0  0  0
   -6.7636  -11.7747   -3.5360 H   0  0  0  0  0  0  0  0  0  0  0  0
  -10.5816  -10.9783   -2.6077 H   0  0  0  0  0  0  0  0  0  0  0  0
   -7.1163   -9.2984    0.2404 H   0  0  0  0  0  0  0  0  0  0  0  0
  -10.1534  -13.0900   -2.5235 H   0  0  0  0  0  0  0  0  0  0  0  0
  -13.2131  -17.2351    2.2025 H   0  0  0  0  0  0  0  0  0  0  0  0
  -13.1147  -12.9286    3.7132 H   0  0  0  0  0  0  0  0  0  0  0  0
   -9.1975   -7.6178    3.9696 H   0  0  0  0  0  0  0  0  0  0  0  0
  -10.6670   -9.9202    5.8827 H   0  0  0  0  0  0  0  0  0  0  0  0
  -13.0345  -11.7783    5.4088 H   0  0  0  0  0  0  0  0  0  0  0  0
   -9.4346  -19.5402  -21.0086 H   0  0  0  0  0  0  0  0  0  0  0  0
   -9.7204  -17.8379  -20.6048 H   0  0  0  0  0  0  0  0  0  0  0  0
   -8.1481  -18.3538  -21.2598 H   0  0  0  0  0  0  0  0  0  0  0  0
   -0.4168   -9.4945  -13.1753 H   0  0  0  0  0  0  0  0  0  0  0  0
   -4.7597  -13.5618  -19.5632 H   0  0  0  0  0  0  0  0  0  0  0  0
   -6.3188  -14.2291  -20.0586 H   0  0  0  0  0  0  0  0  0  0  0  0
   -6.1237  -13.4934  -18.4453 H   0  0  0  0  0  0  0  0  0  0  0  0
   -2.3102  -11.8771  -17.3189 H   0  0  0  0  0  0  0  0  0  0  0  0
   -3.7849  -11.7513  -16.3539 H   0  0  0  0  0  0  0  0  0  0  0  0
   -2.6112  -10.4040  -16.3877 H   0  0  0  0  0  0  0  0  0  0  0  0
   -6.9866  -13.7101   -4.4319 H   0  0  0  0  0  0  0  0  0  0  0  0
    3.4049   -5.8288   -5.2328 H   0  0  0  0  0  0  0  0  0  0  0  0
  -14.5197  -19.0018   -0.0563 H   0  0  0  0  0  0  0  0  0  0  0  0
  -13.8390  -14.9393    5.2354 H   0  0  0  0  0  0  0  0  0  0  0  0
  -14.4714  -15.9590    3.9393 H   0  0  0  0  0  0  0  0  0  0  0  0
  -13.3404  -16.6387    5.1247 H   0  0  0  0  0  0  0  0  0  0  0  0
  -13.9488  -18.9584  -10.6952 H   0  0  0  0  0  0  0  0  0  0  0  0
  -11.3543  -18.7839  -16.8100 H   0  0  0  0  0  0  0  0  0  0  0  0
   -7.8135   -9.5058   -4.1125 H   0  0  0  0  0  0  0  0  0  0  0  0
    1.1898   -5.8758   -8.0329 H   0  0  0  0  0  0  0  0  0  0  0  0
   -0.2302   -5.6426   -7.0071 H   0  0  0  0  0  0  0  0  0  0  0  0
    1.2186   -4.6247   -6.7842 H   0  0  0  0  0  0  0  0  0  0  0  0
  -14.3623  -22.3265  -11.1794 H   0  0  0  0  0  0  0  0  0  0  0  0
  -13.7021  -26.1824   -9.6573 H   0  0  0  0  0  0  0  0  0  0  0  0
  -16.2497  -23.5278   -7.6148 H   0  0  0  0  0  0  0  0  0  0  0  0
   -9.3395   -7.4822   -1.0463 H   0  0  0  0  0  0  0  0  0  0  0  0
  -11.7086   -4.1881    1.6121 H   0  0  0  0  0  0  0  0  0  0  0  0
   -9.9475   -5.4982    2.6188 H   0  0  0  0  0  0  0  0  0  0  0  0
   -1.6093   -0.5087   -0.6909 H   0  0  0  0  0  0  0  0  0  0  0  0
   -3.0890   -2.2852   -1.2713 H   0  0  0  0  0  0  0  0  0  0  0  0
   -2.3222   -4.5553   -1.3078 H   0  0  0  0  0  0  0  0  0  0  0  0
    3.7281   -2.6128    0.6581 H   0  0  0  0  0  0  0  0  0  0  0  0
    2.1826   -4.3630    0.1863 H   0  0  0  0  0  0  0  0  0  0  0  0
  -12.5668   -4.5420   -1.7902 H   0  0  0  0  0  0  0  0  0  0  0  0
    0.4455    2.5256   -0.7023 H   0  0  0  0  0  0  0  0  0  0  0  0
    1.9708    2.2387    0.1630 H   0  0  0  0  0  0  0  0  0  0  0  0
    1.6628    1.4392   -1.4037 H   0  0  0  0  0  0  0  0  0  0  0  0
    4.1202   -0.5246    0.7166 H   0  0  0  0  0  0  0  0  0  0  0  0
  -14.5915  -26.7524   -5.7917 H   0  0  0  0  0  0  0  0  0  0  0  0
  -13.3073  -26.0892   -6.8075 H   0  0  0  0  0  0  0  0  0  0  0  0
  -14.4016  -24.9992   -5.9117 H   0  0  0  0  0  0  0  0  0  0  0  0
  -11.0587  -24.2910  -12.1702 H   0  0  0  0  0  0  0  0  0  0  0  0
  -11.6515  -22.9876  -11.1364 H   0  0  0  0  0  0  0  0  0  0  0  0
  -11.2517  -24.5807  -10.4375 H   0  0  0  0  0  0  0  0  0  0  0  0
  -12.4204   -7.5697   -3.5138 H   0  0  0  0  0  0  0  0  0  0  0  0
  -11.7651   -8.3614   -2.0787 H   0  0  0  0  0  0  0  0  0  0  0  0
  -13.1262   -7.2193   -1.9330 H   0  0  0  0  0  0  0  0  0  0  0  0
  7  8  2  0  0  0  0
  8  9  1  0  0  0  0
 19 20  1  0  0  0  0
 27 28  1  0  0  0  0
 28 29  2  0  0  0  0
 29 30  1  0  0  0  0
 30 31  2  0  0  0  0
 20 27  2  0  0  0  0
 20 31  1  0  0  0  0
 13 19  1  0  0  0  0
 16 36  1  0  0  0  0
 36 37  1  0  0  0  0
 38 39  1  0  0  0  0
 41 42  1  0  0  0  0
 41 43  2  0  0  0  0
 43 44  1  0  0  0  0
 44 45  2  0  0  0  0
 45 46  1  0  0  0  0
 45 52  1  0  0  0  0
 52 53  1  0  0  0  0
 54 55  1  0  0  0  0
 54 56  2  0  0  0  0
 40 54  1  0  0  0  0
 38 28  1  0  0  0  0
 91 92  2  0  0  0  0
 94 95  2  0  0  0  0
 96 97  2  0  0  0  0
 91 97  1  0  0  0  0
 92 94  1  0  0  0  0
112118  1  0  0  0  0
110119  1  0  0  0  0
 75120  1  0  0  0  0
120121  2  0  0  0  0
120122  1  0  0  0  0
 67123  1  0  0  0  0
 77125  1  0  0  0  0
125126  1  0  0  0  0
 64127  1  0  0  0  0
127128  1  0  0  0  0
 35130  1  0  0  0  0
 91130  1  0  0  0  0
 27131  1  0  0  0  0
 14131  1  0  0  0  0
131132  2  0  0  0  0
 34133  1  0  0  0  0
 32133  1  0  0  0  0
133134  2  0  0  0  0
 30135  1  0  0  0  0
 86136  2  0  0  0  0
 89136  1  0  0  0  0
136137  1  0  0  0  0
107138  1  0  0  0  0
138139  1  0  0  0  0
138140  2  0  0  0  0
 43141  1  0  0  0  0
 41142  1  0  0  0  0
 72143  1  0  0  0  0
 92144  1  0  0  0  0
141145  1  0  0  0  0
 31146  1  0  0  0  0
146147  1  0  0  0  0
114148  1  0  0  0  0
148149  1  0  0  0  0
157169  1  0  0  0  0
165170  1  0  0  0  0
170171  2  0  0  0  0
170172  1  0  0  0  0
166173  1  0  0  0  0
153174  1  0  0  0  0
174175  1  0  0  0  0
151176  1  0  0  0  0
176177  1  0  0  0  0
149159  2  0  0  0  0
158159  1  0  0  0  0
157158  2  0  0  0  0
156157  1  0  0  0  0
155156  2  0  0  0  0
149155  1  0  0  0  0
160168  2  0  0  0  0
167168  1  0  0  0  0
166167  2  0  0  0  0
165166  1  0  0  0  0
161165  2  0  0  0  0
 39164  2  0  0  0  0
163164  1  0  0  0  0
162163  2  0  0  0  0
161162  1  0  0  0  0
160161  1  0  0  0  0
 39160  1  0  0  0  0
145154  2  0  0  0  0
153154  1  0  0  0  0
152153  2  0  0  0  0
151152  1  0  0  0  0
150151  2  0  0  0  0
145150  1  0  0  0  0
156178  1  0  0  0  0
178179  1  0  0  0  0
124129  2  0  0  0  0
 55129  1  0  0  0  0
 63124  1  0  0  0  0
117124  1  0  0  0  0
 93117  1  0  0  0  0
115117  2  0  0  0  0
 12116  1  0  0  0  0
  9116  1  0  0  0  0
115 11  1  0  0  0  0
 18115  1  0  0  0  0
113114  2  0  0  0  0
101114  1  0  0  0  0
112113  1  0  0  0  0
111112  2  0  0  0  0
100111  1  0  0  0  0
110111  1  0  0  0  0
109110  2  0  0  0  0
106109  1  0  0  0  0
108 89  1  0  0  0  0
107108  2  0  0  0  0
105107  1  0  0  0  0
106 99  1  0  0  0  0
105106  2  0  0  0  0
104105  1  0  0  0  0
104 90  1  0  0  0  0
102104  2  0  0  0  0
103 84  2  0  0  0  0
102103  1  0  0  0  0
 98102  1  0  0  0  0
 96101  1  0  0  0  0
100101  2  0  0  0  0
 99100  1  0  0  0  0
 98 99  2  0  0  0  0
 95 98  1  0  0  0  0
 95 96  1  0  0  0  0
 35 93  2  0  0  0  0
 83 90  1  0  0  0  0
 89 90  2  0  0  0  0
 88 79  1  0  0  0  0
 87 88  2  0  0  0  0
 86 87  1  0  0  0  0
 82 86  1  0  0  0  0
 81 85  2  0  0  0  0
 84 85  1  0  0  0  0
 83 84  1  0  0  0  0
 82 83  2  0  0  0  0
 80 82  1  0  0  0  0
 51 81  1  0  0  0  0
 80 81  1  0  0  0  0
 79 80  2  0  0  0  0
 59 79  1  0  0  0  0
 74 78  1  0  0  0  0
 77 78  2  0  0  0  0
 76 77  1  0  0  0  0
 75 76  2  0  0  0  0
 73 75  1  0  0  0  0
 69 74  1  0  0  0  0
 73 74  2  0  0  0  0
 72 73  1  0  0  0  0
 71 72  2  0  0  0  0
 68 71  1  0  0  0  0
 60 70  2  0  0  0  0
 69 70  1  0  0  0  0
 68 69  2  0  0  0  0
 34 68  1  0  0  0  0
 64 67  1  0  0  0  0
 66 67  2  0  0  0  0
 58 66  1  0  0  0  0
 65 57  1  0  0  0  0
 64 65  2  0  0  0  0
 63  3  2  0  0  0  0
 62 63  1  0  0  0  0
 62  1  2  0  0  0  0
 61 62  1  0  0  0  0
 55 61  2  0  0  0  0
 22 61  1  0  0  0  0
 60 17  1  0  0  0  0
 60 33  1  0  0  0  0
 59 50  2  0  0  0  0
 46 59  1  0  0  0  0
 58  7  1  0  0  0  0
 57 58  2  0  0  0  0
  6 57  1  0  0  0  0
 51 40  2  0  0  0  0
 50 51  1  0  0  0  0
 49 50  1  0  0  0  0
 49 25  1  0  0  0  0
 47 49  2  0  0  0  0
 48 32  2  0  0  0  0
 47 48  1  0  0  0  0
 47 42  1  0  0  0  0
 42 46  2  0  0  0  0
 26 40  1  0  0  0  0
 10 35  1  0  0  0  0
 33 34  2  0  0  0  0
 23 33  1  0  0  0  0
 32 24  1  0  0  0  0
 22 26  2  0  0  0  0
 25 26  1  0  0  0  0
 24 25  2  0  0  0  0
 23 24  1  0  0  0  0
 21 23  2  0  0  0  0
 21 22  1  0  0  0  0
 21  2  1  0  0  0  0
  9 18  2  0  0  0  0
  3 18  1  0  0  0  0
 16 17  1  0  0  0  0
  2 17  2  0  0  0  0
  6 16  2  0  0  0  0
 14 15  2  0  0  0  0
 10 15  1  0  0  0  0
 13 14  1  0  0  0  0
 13 12  2  0  0  0  0
 11 12  1  0  0  0  0
 10 11  2  0  0  0  0
  4  7  1  0  0  0  0
  5  6  1  0  0  0  0
  4  5  2  0  0  0  0
  1  5  1  0  0  0  0
  3  4  1  0  0  0  0
  1  2  1  0  0  0  0
116180  2  0  0  0  0
  8181  1  0  0  0  0
 15182  1  0  0  0  0
 29183  1  0  0  0  0
 37184  1  0  0  0  0
 37185  1  0  0  0  0
 37186  1  0  0  0  0
 44187  1  0  0  0  0
 48188  1  0  0  0  0
 53189  1  0  0  0  0
 53190  1  0  0  0  0
 53191  1  0  0  0  0
 65192  1  0  0  0  0
 66193  1  0  0  0  0
 70194  1  0  0  0  0
 71195  1  0  0  0  0
 76196  1  0  0  0  0
 78197  1  0  0  0  0
 85198  1  0  0  0  0
 87199  1  0  0  0  0
 88200  1  0  0  0  0
 93201  1  0  0  0  0
 94202  1  0  0  0  0
 97203  1  0  0  0  0
103204  1  0  0  0  0
108205  1  0  0  0  0
109206  1  0  0  0  0
113207  1  0  0  0  0
118208  1  0  0  0  0
119209  1  0  0  0  0
122210  1  0  0  0  0
122211  1  0  0  0  0
122212  1  0  0  0  0
123213  1  0  0  0  0
126214  1  0  0  0  0
126215  1  0  0  0  0
126216  1  0  0  0  0
128217  1  0  0  0  0
128218  1  0  0  0  0
128219  1  0  0  0  0
129220  1  0  0  0  0
135221  1  0  0  0  0
137222  1  0  0  0  0
139223  1  0  0  0  0
139224  1  0  0  0  0
139225  1  0  0  0  0
142226  1  0  0  0  0
143227  1  0  0  0  0
144228  1  0  0  0  0
147229  1  0  0  0  0
147230  1  0  0  0  0
147231  1  0  0  0  0
150232  1  0  0  0  0
152233  1  0  0  0  0
154234  1  0  0  0  0
155235  1  0  0  0  0
158236  1  0  0  0  0
159237  1  0  0  0  0
162238  1  0  0  0  0
163239  1  0  0  0  0
164240  1  0  0  0  0
167241  1  0  0  0  0
168242  1  0  0  0  0
169243  1  0  0  0  0
172244  1  0  0  0  0
172245  1  0  0  0  0
172246  1  0  0  0  0
173247  1  0  0  0  0
175248  1  0  0  0  0
175249  1  0  0  0  0
175250  1  0  0  0  0
177251  1  0  0  0  0
177252  1  0  0  0  0
177253  1  0  0  0  0
179254  1  0  0  0  0
179255  1  0  0  0  0
179256  1  0  0  0  0
M  END
