
  Mrv2101 10312211283D          

146165  0  0  0  0            999 V2000
   -2.4911    1.1145    8.0273 C   0  0  0  0  0  0  0  0  0  0  0  0
   -2.0293   -0.1802    7.7935 C   0  0  0  0  0  0  0  0  0  0  0  0
   -1.7902   -0.6888    6.5135 C   0  0  0  0  0  0  0  0  0  0  0  0
   -2.0769    0.1257    5.3776 C   0  0  0  0  0  0  0  0  0  0  0  0
   -2.5376    1.4676    5.6091 C   0  0  0  0  0  0  0  0  0  0  0  0
   -2.7381    1.9662    6.9289 C   0  0  0  0  0  0  0  0  0  0  0  0
   -3.1718    3.2949    7.1312 C   0  0  0  0  0  0  0  0  0  0  0  0
   -3.3350    3.7235    8.3019 O   0  0  0  0  0  0  0  0  0  0  0  0
   -3.4204    4.1510    6.0358 C   0  0  0  0  0  0  0  0  0  0  0  0
   -3.2281    3.6813    4.7041 C   0  0  0  0  0  0  0  0  0  0  0  0
   -3.4662    4.5610    3.5952 C   0  0  0  0  0  0  0  0  0  0  0  0
   -3.9186    5.8778    3.8531 C   0  0  0  0  0  0  0  0  0  0  0  0
   -4.1148    6.3306    5.1638 C   0  0  0  0  0  0  0  0  0  0  0  0
   -3.8579    5.4811    6.2454 C   0  0  0  0  0  0  0  0  0  0  0  0
   -2.7840    2.3075    4.4355 C   0  0  0  0  0  0  0  0  0  0  0  0
   -2.5800    1.7846    3.0551 C   0  0  0  0  0  0  0  0  0  0  0  0
   -2.8394    2.7855    2.0001 C   0  0  0  0  0  0  0  0  0  0  0  0
   -3.2664    4.1453    2.2503 C   0  0  0  0  0  0  0  0  0  0  0  0
   -2.1584    0.4483    2.8898 C   0  0  0  0  0  0  0  0  0  0  0  0
   -1.9300   -0.3396    4.0457 C   0  0  0  0  0  0  0  0  0  0  0  0
   -1.7410   -1.0719    8.7554 O   0  0  0  0  0  0  0  0  0  0  0  0
   -1.2796   -2.1763    8.1351 C   0  0  0  0  0  0  0  0  0  0  0  0
   -0.8248   -3.3587    8.7589 C   0  0  0  0  0  0  0  0  0  0  0  0
   -0.2820   -4.4011    7.9419 C   0  0  0  0  0  0  0  0  0  0  0  0
   -0.2690   -4.1987    6.5329 C   0  0  0  0  0  0  0  0  0  0  0  0
   -0.7594   -3.0158    5.9372 C   0  0  0  0  0  0  0  0  0  0  0  0
   -1.2700   -1.9808    6.7492 C   0  0  0  0  0  0  0  0  0  0  0  0
    0.2109   -5.5939    8.5615 C   0  0  0  0  0  0  0  0  0  0  0  0
    0.2455   -5.6245    9.9780 C   0  0  0  0  0  0  0  0  0  0  0  0
   -0.2399   -4.5870   10.7849 C   0  0  0  0  0  0  0  0  0  0  0  0
   -0.9041   -3.5030   10.1678 C   0  0  0  0  0  0  0  0  0  0  0  0
    0.6716   -6.6399   10.7650 O   0  0  0  0  0  0  0  0  0  0  0  0
    0.4929   -6.2551   12.0478 C   0  0  0  0  0  0  0  0  0  0  0  0
   -0.0040   -4.9555   12.1262 C   0  0  0  0  0  0  0  0  0  0  0  0
   -0.1826   -4.3589   13.4074 C   0  0  0  0  0  0  0  0  0  0  0  0
   -0.0316   -5.1538   14.5837 C   0  0  0  0  0  0  0  0  0  0  0  0
    0.4338   -6.5016   14.4687 C   0  0  0  0  0  0  0  0  0  0  0  0
    0.7249   -7.0323   13.1868 C   0  0  0  0  0  0  0  0  0  0  0  0
   -0.3408   -4.6002   15.8665 C   0  0  0  0  0  0  0  0  0  0  0  0
   -0.8062   -3.2409   16.0007 C   0  0  0  0  0  0  0  0  0  0  0  0
   -0.9960   -2.4987   14.7987 C   0  0  0  0  0  0  0  0  0  0  0  0
   -0.5143   -3.0080   13.5758 C   0  0  0  0  0  0  0  0  0  0  0  0
   -0.2037   -5.4414   17.0143 C   0  0  0  0  0  0  0  0  0  0  0  0
   -0.5499   -4.9483   18.2990 C   0  0  0  0  0  0  0  0  0  0  0  0
   -1.0230   -3.6373   18.4097 C   0  0  0  0  0  0  0  0  0  0  0  0
   -1.0782   -2.7520   17.3240 C   0  0  0  0  0  0  0  0  0  0  0  0
    0.2781   -6.7787   16.9048 C   0  0  0  0  0  0  0  0  0  0  0  0
    0.4385   -7.5632   18.0780 C   0  0  0  0  0  0  0  0  0  0  0  0
    0.1233   -7.0455   19.3470 C   0  0  0  0  0  0  0  0  0  0  0  0
   -0.3829   -5.7427   19.4521 C   0  0  0  0  0  0  0  0  0  0  0  0
    0.5999   -7.2942   15.6289 C   0  0  0  0  0  0  0  0  0  0  0  0
    1.0370   -8.4678   15.5249 O   0  0  0  0  0  0  0  0  0  0  0  0
    0.6450   -6.8109    7.7976 C   0  0  2  0  0  0  0  0  0  0  0  0
   -0.5699   -7.6218    7.2567 C   0  0  2  0  0  0  0  0  0  0  0  0
   -0.1750   -8.8151    6.3412 C   0  0  1  0  0  0  0  0  0  0  0  0
   -1.3534   -9.6552    5.9790 C   0  0  0  0  0  0  0  0  0  0  0  0
   -1.7237  -10.7615    6.7777 C   0  0  0  0  0  0  0  0  0  0  0  0
   -2.8541  -11.5367    6.4597 C   0  0  0  0  0  0  0  0  0  0  0  0
   -3.6472  -11.2321    5.3287 C   0  0  0  0  0  0  0  0  0  0  0  0
   -3.2679  -10.1346    4.5216 C   0  0  0  0  0  0  0  0  0  0  0  0
   -2.1376   -9.3585    4.8410 C   0  0  0  0  0  0  0  0  0  0  0  0
   -1.8785   -0.1353    1.5433 C   0  0  1  0  0  0  0  0  0  0  0  0
   -0.3911    0.0894    1.1546 C   0  0  2  0  0  0  0  0  0  0  0  0
    0.0301   -0.6456   -0.1443 C   0  0  2  0  0  0  0  0  0  0  0  0
    1.4463   -0.3591   -0.4983 C   0  0  0  0  0  0  0  0  0  0  0  0
    2.4852   -1.2591   -0.1381 C   0  0  0  0  0  0  0  0  0  0  0  0
    3.8326   -0.9903   -0.4586 C   0  0  0  0  0  0  0  0  0  0  0  0
    4.1296    0.1984   -1.1432 C   0  0  0  0  0  0  0  0  0  0  0  0
    3.1218    1.0962   -1.4984 C   0  0  0  0  0  0  0  0  0  0  0  0
    1.7785    0.8353   -1.1870 C   0  0  0  0  0  0  0  0  0  0  0  0
    3.6417    2.1672   -2.1458 O   0  0  0  0  0  0  0  0  0  0  0  0
    4.9796    1.9586   -2.2088 C   0  0  0  0  0  0  0  0  0  0  0  0
    5.3197    0.7462   -1.6036 C   0  0  0  0  0  0  0  0  0  0  0  0
    6.6534    0.3048   -1.5553 C   0  0  0  0  0  0  0  0  0  0  0  0
    7.6515    1.1133   -2.1460 C   0  0  0  0  0  0  0  0  0  0  0  0
    7.3081    2.3516   -2.7445 C   0  0  0  0  0  0  0  0  0  0  0  0
    5.9639    2.7822   -2.7783 C   0  0  0  0  0  0  0  0  0  0  0  0
    8.2598    3.1427   -3.2975 O   0  0  0  0  0  0  0  0  0  0  0  0
    8.9433    0.7011   -2.1436 O   0  0  0  0  0  0  0  0  0  0  0  0
   -1.4575   -3.0818   19.5609 O   0  0  0  0  0  0  0  0  0  0  0  0
   -4.7934  -11.9950    4.9951 C   0  0  0  0  0  0  0  0  0  0  0  0
   -5.1800  -12.9691    5.6805 O   0  0  0  0  0  0  0  0  0  0  0  0
   -1.7835   -1.3289   14.7062 C   0  0  0  0  0  0  0  0  0  0  0  0
   -1.6006   -0.4351   13.8466 O   0  0  0  0  0  0  0  0  0  0  0  0
   -3.5033    4.9727    1.1778 O   0  0  0  0  0  0  0  0  0  0  0  0
   -2.3240    5.6469    0.7054 C   0  0  0  0  0  0  0  0  0  0  0  0
   -1.6748   -2.6308   10.8879 O   0  0  0  0  0  0  0  0  0  0  0  0
   -3.0130   -3.1051   11.1241 C   0  0  0  0  0  0  0  0  0  0  0  0
    0.3565   -7.7717   20.4820 O   0  0  0  0  0  0  0  0  0  0  0  0
   -0.7717   -8.5608   20.8886 C   0  0  0  0  0  0  0  0  0  0  0  0
   -1.7379   -1.8047   19.2687 C   0  0  0  0  0  0  0  0  0  0  0  0
   -1.4244   -1.5206   17.9328 C   0  0  0  0  0  0  0  0  0  0  0  0
   -1.4762   -0.1625   17.5292 C   0  0  0  0  0  0  0  0  0  0  0  0
   -2.0128    0.8146   18.3967 C   0  0  0  0  0  0  0  0  0  0  0  0
   -2.4308    0.4645   19.6965 C   0  0  0  0  0  0  0  0  0  0  0  0
   -2.2560   -0.8516   20.1581 C   0  0  0  0  0  0  0  0  0  0  0  0
   -2.6254    1.4211    8.9958 H   0  0  0  0  0  0  0  0  0  0  0  0
   -4.1111    6.5330    3.0910 H   0  0  0  0  0  0  0  0  0  0  0  0
   -4.4382    7.2846    5.3342 H   0  0  0  0  0  0  0  0  0  0  0  0
   -3.9943    5.8514    7.1908 H   0  0  0  0  0  0  0  0  0  0  0  0
   -2.7334    2.6032    0.9502 H   0  0  0  0  0  0  0  0  0  0  0  0
   -1.6420   -1.2974    3.8900 H   0  0  0  0  0  0  0  0  0  0  0  0
    0.1068   -4.9114    5.9067 H   0  0  0  0  0  0  0  0  0  0  0  0
   -0.7155   -2.9394    4.9241 H   0  0  0  0  0  0  0  0  0  0  0  0
    1.0766   -7.9855   13.0607 H   0  0  0  0  0  0  0  0  0  0  0  0
   -0.4270   -2.3801   12.7870 H   0  0  0  0  0  0  0  0  0  0  0  0
    0.7991   -8.5217   18.0281 H   0  0  0  0  0  0  0  0  0  0  0  0
   -0.6048   -5.3749   20.3828 H   0  0  0  0  0  0  0  0  0  0  0  0
    1.2345   -7.4767    8.4328 H   0  0  0  0  0  0  0  0  0  0  0  0
    1.3088   -6.5252    6.9809 H   0  0  0  0  0  0  0  0  0  0  0  0
   -1.2359   -6.9621    6.6938 H   0  0  0  0  0  0  0  0  0  0  0  0
   -1.1285   -8.0030    8.1163 H   0  0  0  0  0  0  0  0  0  0  0  0
    0.3028   -8.4327    5.4337 H   0  0  0  0  0  0  0  0  0  0  0  0
    0.5702   -9.4309    6.8513 H   0  0  0  0  0  0  0  0  0  0  0  0
   -1.1712  -11.0110    7.6016 H   0  0  0  0  0  0  0  0  0  0  0  0
   -3.0916  -12.3264    7.0652 H   0  0  0  0  0  0  0  0  0  0  0  0
   -3.8132   -9.8879    3.6912 H   0  0  0  0  0  0  0  0  0  0  0  0
   -1.8902   -8.5724    4.2350 H   0  0  0  0  0  0  0  0  0  0  0  0
   -2.1000   -1.2055    1.5440 H   0  0  0  0  0  0  0  0  0  0  0  0
   -2.5298    0.2973    0.7818 H   0  0  0  0  0  0  0  0  0  0  0  0
    0.2508   -0.2663    1.9670 H   0  0  0  0  0  0  0  0  0  0  0  0
   -0.2182    1.1626    1.0344 H   0  0  0  0  0  0  0  0  0  0  0  0
   -0.6149   -0.3450   -0.9736 H   0  0  0  0  0  0  0  0  0  0  0  0
   -0.1125   -1.7199    0.0005 H   0  0  0  0  0  0  0  0  0  0  0  0
    2.2671   -2.1167    0.3714 H   0  0  0  0  0  0  0  0  0  0  0  0
    4.5726   -1.6430   -0.1969 H   0  0  0  0  0  0  0  0  0  0  0  0
    1.0606    1.5102   -1.4609 H   0  0  0  0  0  0  0  0  0  0  0  0
    6.8927   -0.5795   -1.1038 H   0  0  0  0  0  0  0  0  0  0  0  0
    5.7050    3.6720   -3.2125 H   0  0  0  0  0  0  0  0  0  0  0  0
    8.5077    2.6945   -4.1334 H   0  0  0  0  0  0  0  0  0  0  0  0
    8.9065   -0.2794   -2.1744 H   0  0  0  0  0  0  0  0  0  0  0  0
   -5.3449  -11.7629    4.1665 H   0  0  0  0  0  0  0  0  0  0  0  0
   -2.5724   -1.2115   15.3404 H   0  0  0  0  0  0  0  0  0  0  0  0
   -2.6317    6.3600   -0.0609 H   0  0  0  0  0  0  0  0  0  0  0  0
   -1.8308    6.2000    1.5097 H   0  0  0  0  0  0  0  0  0  0  0  0
   -1.6168    4.9447    0.2548 H   0  0  0  0  0  0  0  0  0  0  0  0
   -3.5152   -2.3856   11.7728 H   0  0  0  0  0  0  0  0  0  0  0  0
   -3.5810   -3.1849   10.1923 H   0  0  0  0  0  0  0  0  0  0  0  0
   -3.0096   -4.0735   11.6314 H   0  0  0  0  0  0  0  0  0  0  0  0
   -0.4947   -9.0906   21.7991 H   0  0  0  0  0  0  0  0  0  0  0  0
   -1.6446   -7.9406   21.1097 H   0  0  0  0  0  0  0  0  0  0  0  0
   -1.0286   -9.3001   20.1267 H   0  0  0  0  0  0  0  0  0  0  0  0
   -1.1140    0.1524   16.6329 H   0  0  0  0  0  0  0  0  0  0  0  0
   -2.0933    1.7859   18.0856 H   0  0  0  0  0  0  0  0  0  0  0  0
   -2.8473    1.1674   20.3103 H   0  0  0  0  0  0  0  0  0  0  0  0
   -2.5063   -1.1131   21.1151 H   0  0  0  0  0  0  0  0  0  0  0  0
  1  2  1  0  0  0  0
  2  3  2  0  0  0  0
  3  4  1  0  0  0  0
  4  5  2  0  0  0  0
  5  6  1  0  0  0  0
  1  6  2  0  0  0  0
  6  7  1  0  0  0  0
  7  8  2  0  0  0  0
  7  9  1  0  0  0  0
 10 11  1  0  0  0  0
 11 12  1  0  0  0  0
 12 13  2  0  0  0  0
 13 14  1  0  0  0  0
  9 10  1  0  0  0  0
  9 14  2  0  0  0  0
 15 16  1  0  0  0  0
 16 17  2  0  0  0  0
 17 18  1  0  0  0  0
 10 15  2  0  0  0  0
 11 18  2  0  0  0  0
 19 20  2  0  0  0  0
 15  5  1  0  0  0  0
 16 19  1  0  0  0  0
 20  4  1  0  0  0  0
  2 21  1  0  0  0  0
 21 22  1  0  0  0  0
 23 24  2  0  0  0  0
 24 25  1  0  0  0  0
 25 26  2  0  0  0  0
 26 27  1  0  0  0  0
 22 23  1  0  0  0  0
 22 27  2  0  0  0  0
 28 29  2  0  0  0  0
 29 30  1  0  0  0  0
 30 31  2  0  0  0  0
 23 31  1  0  0  0  0
 24 28  1  0  0  0  0
 29 32  1  0  0  0  0
 32 33  1  0  0  0  0
 34 35  1  0  0  0  0
 35 36  2  0  0  0  0
 36 37  1  0  0  0  0
 37 38  2  0  0  0  0
 33 34  2  0  0  0  0
 33 38  1  0  0  0  0
 39 40  2  0  0  0  0
 40 41  1  0  0  0  0
 41 42  2  0  0  0  0
 35 42  1  0  0  0  0
 36 39  1  0  0  0  0
 43 44  1  0  0  0  0
 44 45  1  0  0  0  0
 45 46  2  0  0  0  0
 39 43  1  0  0  0  0
 40 46  1  0  0  0  0
 47 48  1  0  0  0  0
 48 49  2  0  0  0  0
 49 50  1  0  0  0  0
 43 47  2  0  0  0  0
 44 50  2  0  0  0  0
 47 51  1  0  0  0  0
 51 37  1  0  0  0  0
 51 52  2  0  0  0  0
 28 53  1  0  0  0  0
 53 54  1  0  0  0  0
 54 55  1  0  0  0  0
 55 56  1  0  0  0  0
 57 58  2  0  0  0  0
 58 59  1  0  0  0  0
 59 60  2  0  0  0  0
 60 61  1  0  0  0  0
 56 57  1  0  0  0  0
 56 61  2  0  0  0  0
 19 62  1  0  0  0  0
 62 63  1  0  0  0  0
 63 64  1  0  0  0  0
 64 65  1  0  0  0  0
 66 67  2  0  0  0  0
 67 68  1  0  0  0  0
 68 69  2  0  0  0  0
 69 70  1  0  0  0  0
 65 66  1  0  0  0  0
 65 70  2  0  0  0  0
 69 71  1  0  0  0  0
 71 72  1  0  0  0  0
 74 75  2  0  0  0  0
 75 76  1  0  0  0  0
 76 77  2  0  0  0  0
 73 74  1  0  0  0  0
 77 72  1  0  0  0  0
 73 72  2  0  0  0  0
 76 78  1  0  0  0  0
 75 79  1  0  0  0  0
 45 80  1  0  0  0  0
 59 81  1  0  0  0  0
 81 82  2  0  0  0  0
 41 83  1  0  0  0  0
 83 84  2  0  0  0  0
 18 85  1  0  0  0  0
 85 86  1  0  0  0  0
 31 87  1  0  0  0  0
 87 88  1  0  0  0  0
 49 89  1  0  0  0  0
 89 90  1  0  0  0  0
 30 34  1  0  0  0  0
  3 27  1  0  0  0  0
 73 68  1  0  0  0  0
 80 91  1  0  0  0  0
 92 93  2  0  0  0  0
 93 94  1  0  0  0  0
 94 95  2  0  0  0  0
 95 96  1  0  0  0  0
 91 92  1  0  0  0  0
 91 96  2  0  0  0  0
 92 46  1  0  0  0  0
  1 97  1  0  0  0  0
 12 98  1  0  0  0  0
 13 99  1  0  0  0  0
 14100  1  0  0  0  0
 17101  1  0  0  0  0
 20102  1  0  0  0  0
 25103  1  0  0  0  0
 26104  1  0  0  0  0
 38105  1  0  0  0  0
 42106  1  0  0  0  0
 48107  1  0  0  0  0
 50108  1  0  0  0  0
 53109  1  0  0  0  0
 53110  1  0  0  0  0
 54111  1  0  0  0  0
 54112  1  0  0  0  0
 55113  1  0  0  0  0
 55114  1  0  0  0  0
 57115  1  0  0  0  0
 58116  1  0  0  0  0
 60117  1  0  0  0  0
 61118  1  0  0  0  0
 62119  1  0  0  0  0
 62120  1  0  0  0  0
 63121  1  0  0  0  0
 63122  1  0  0  0  0
 64123  1  0  0  0  0
 64124  1  0  0  0  0
 66125  1  0  0  0  0
 67126  1  0  0  0  0
 70127  1  0  0  0  0
 74128  1  0  0  0  0
 77129  1  0  0  0  0
 78130  1  0  0  0  0
 79131  1  0  0  0  0
 81132  1  0  0  0  0
 83133  1  0  0  0  0
 86134  1  0  0  0  0
 86135  1  0  0  0  0
 86136  1  0  0  0  0
 88137  1  0  0  0  0
 88138  1  0  0  0  0
 88139  1  0  0  0  0
 90140  1  0  0  0  0
 90141  1  0  0  0  0
 90142  1  0  0  0  0
 93143  1  0  0  0  0
 94144  1  0  0  0  0
 95145  1  0  0  0  0
 96146  1  0  0  0  0
M  END
