
  Mrv2101 10312211293D          

250287  0  0  0  0            999 V2000
   10.9096  -14.2826    7.0730 C   0  0  0  0  0  0  0  0  0  0  0  0
    9.6437  -14.4845    6.4498 C   0  0  0  0  0  0  0  0  0  0  0  0
    8.8642  -13.3503    6.1843 C   0  0  0  0  0  0  0  0  0  0  0  0
    7.8918  -13.3118    5.2202 C   0  0  0  0  0  0  0  0  0  0  0  0
    6.7372  -14.0176    5.5373 C   0  0  0  0  0  0  0  0  0  0  0  0
    5.7243  -13.1340    5.9535 C   0  0  0  0  0  0  0  0  0  0  0  0
    5.9072  -12.7488    2.7304 C   0  0  0  0  0  0  0  0  0  0  0  0
    6.9989  -12.1370    3.2467 C   0  0  0  0  0  0  0  0  0  0  0  0
    7.9989  -12.4594    4.1567 C   0  0  0  0  0  0  0  0  0  0  0  0
    7.2258  -10.8554    2.8486 C   0  0  0  0  0  0  0  0  0  0  0  0
    8.4392  -10.4730    3.3056 C   0  0  0  0  0  0  0  0  0  0  0  0
    9.0019  -11.5112    3.9690 C   0  0  0  0  0  0  0  0  0  0  0  0
    4.3741  -13.3925    6.0968 C   0  0  0  0  0  0  0  0  0  0  0  0
    3.4699  -12.3728    6.4331 C   0  0  0  0  0  0  0  0  0  0  0  0
    5.0470  -12.0400    1.8596 C   0  0  0  0  0  0  0  0  0  0  0  0
    9.2083  -15.7982    6.1010 C   0  0  0  0  0  0  0  0  0  0  0  0
   10.1554  -16.8516    6.2687 C   0  0  0  0  0  0  0  0  0  0  0  0
   11.4197  -16.6477    6.8457 C   0  0  0  0  0  0  0  0  0  0  0  0
   11.7868  -15.3635    7.2684 C   0  0  0  0  0  0  0  0  0  0  0  0
    7.8926  -16.1698    5.6771 C   0  0  0  0  0  0  0  0  0  0  0  0
    6.6635  -15.4417    5.4302 C   0  0  0  0  0  0  0  0  0  0  0  0
    6.4101  -10.0243    2.0660 C   0  0  0  0  0  0  0  0  0  0  0  0
    5.3062  -10.6841    1.5464 C   0  0  0  0  0  0  0  0  0  0  0  0
   10.3061  -11.3765    4.3084 C   0  0  0  0  0  0  0  0  0  0  0  0
   10.9879  -10.1633    4.0334 C   0  0  0  0  0  0  0  0  0  0  0  0
    4.7139   -7.5733    1.8960 C   0  0  0  0  0  0  0  0  0  0  0  0
    4.0554   -6.5625    1.3431 C   0  0  0  0  0  0  0  0  0  0  0  0
    4.9167   -6.0314    0.4788 C   0  0  0  0  0  0  0  0  0  0  0  0
    7.5513   -2.0529   -1.6106 C   0  0  0  0  0  0  0  0  0  0  0  0
    7.8023   -0.7081   -2.0677 C   0  0  0  0  0  0  0  0  0  0  0  0
    9.1772   -0.3104   -2.2750 C   0  0  0  0  0  0  0  0  0  0  0  0
    8.3489   -3.1209   -2.1174 C   0  0  0  0  0  0  0  0  0  0  0  0
    6.1484   -6.6033    0.5421 C   0  0  0  0  0  0  0  0  0  0  0  0
    5.9593   -7.6746    1.4040 C   0  0  0  0  0  0  0  0  0  0  0  0
    8.2896   -4.4495   -1.6293 C   0  0  0  0  0  0  0  0  0  0  0  0
    4.7101   -0.7978   -1.0987 C   0  0  0  0  0  0  0  0  0  0  0  0
    5.3103    0.0980   -2.0273 C   0  0  0  0  0  0  0  0  0  0  0  0
    6.7195    0.1685   -2.3288 C   0  0  0  0  0  0  0  0  0  0  0  0
    7.4005   -4.7842   -0.5656 C   0  0  0  0  0  0  0  0  0  0  0  0
    7.2514   -6.1261   -0.1202 C   0  0  0  0  0  0  0  0  0  0  0  0
    8.9881   -9.2127    3.0518 C   0  0  0  0  0  0  0  0  0  0  0  0
   10.3064   -9.0723    3.4359 C   0  0  0  0  0  0  0  0  0  0  0  0
    8.2546   -7.0150   -0.5031 C   0  0  0  0  0  0  0  0  0  0  0  0
    8.1222   -8.2681    2.4374 C   0  0  0  0  0  0  0  0  0  0  0  0
    6.8283   -8.6502    1.9332 C   0  0  0  0  0  0  0  0  0  0  0  0
    5.4572  -16.2337    5.1684 C   0  0  0  0  0  0  0  0  0  0  0  0
    4.0991  -15.9063    5.5107 C   0  0  0  0  0  0  0  0  0  0  0  0
    3.6978  -14.5903    5.8875 C   0  0  0  0  0  0  0  0  0  0  0  0
    5.7198  -17.4304    4.4313 C   0  0  0  0  0  0  0  0  0  0  0  0
    3.9558  -19.1433    5.0338 C   0  0  0  0  0  0  0  0  0  0  0  0
    2.9508  -18.2257    5.3751 C   0  0  0  0  0  0  0  0  0  0  0  0
    2.9867  -16.8270    5.5027 C   0  0  0  0  0  0  0  0  0  0  0  0
    1.6954  -16.3817    5.6997 O   0  0  0  0  0  0  0  0  0  0  0  0
    1.3152  -15.1069    5.9603 C   0  0  0  0  0  0  0  0  0  0  0  0
    2.3694  -14.2184    6.0844 C   0  0  0  0  0  0  0  0  0  0  0  0
    2.1811  -12.8810    6.3816 C   0  0  0  0  0  0  0  0  0  0  0  0
    0.8819  -12.3387    6.5374 C   0  0  0  0  0  0  0  0  0  0  0  0
   -0.2251  -13.2436    6.4138 C   0  0  0  0  0  0  0  0  0  0  0  0
   -0.0071  -14.6310    6.1213 C   0  0  0  0  0  0  0  0  0  0  0  0
   -1.1104  -15.5005    5.9829 C   0  0  0  0  0  0  0  0  0  0  0  0
   -2.4212  -15.0189    6.1398 C   0  0  0  0  0  0  0  0  0  0  0  0
   -2.6430  -13.6648    6.4439 C   0  0  0  0  0  0  0  0  0  0  0  0
   -1.5591  -12.7639    6.5782 C   0  0  0  0  0  0  0  0  0  0  0  0
   -1.7722  -11.3953    6.8718 C   0  0  0  0  0  0  0  0  0  0  0  0
   -0.6852  -10.5114    6.9665 C   0  0  0  0  0  0  0  0  0  0  0  0
    0.6338  -10.9641    6.7834 C   0  0  0  0  0  0  0  0  0  0  0  0
    5.2152  -18.7505    4.5124 C   0  0  0  0  0  0  0  0  0  0  0  0
    6.0904  -19.7746    4.0460 C   0  0  0  0  0  0  0  0  0  0  0  0
    5.7721  -21.1373    4.1480 C   0  0  0  0  0  0  0  0  0  0  0  0
    4.5528  -21.5169    4.7139 C   0  0  0  0  0  0  0  0  0  0  0  0
    3.6457  -20.5348    5.1384 C   0  0  0  0  0  0  0  0  0  0  0  0
    4.4542    3.6089   -4.2593 C   0  0  0  0  0  0  0  0  0  0  0  0
    5.7112    3.0298   -3.9709 C   0  0  0  0  0  0  0  0  0  0  0  0
    7.0777    3.2775   -4.2187 C   0  0  0  0  0  0  0  0  0  0  0  0
    7.8284    2.1759   -3.6599 C   0  0  0  0  0  0  0  0  0  0  0  0
    6.8965    1.3480   -3.0416 C   0  0  0  0  0  0  0  0  0  0  0  0
    7.4712    4.4516   -4.9166 C   0  0  0  0  0  0  0  0  0  0  0  0
    9.8239    4.0131   -4.9778 C   0  0  0  0  0  0  0  0  0  0  0  0
   10.0556    2.7867   -4.3319 C   0  0  0  0  0  0  0  0  0  0  0  0
    9.2059    1.8671   -3.6776 C   0  0  0  0  0  0  0  0  0  0  0  0
    9.8241    0.7026   -3.0762 C   0  0  0  0  0  0  0  0  0  0  0  0
    8.7609    4.8555   -5.3064 C   0  0  0  0  0  0  0  0  0  0  0  0
    8.1088    6.8035   -6.3456 O   0  0  0  0  0  0  0  0  0  0  0  0
    9.0780    6.0680   -6.0423 C   0  0  0  0  0  0  0  0  0  0  0  0
   10.4387    6.4310   -6.4459 C   0  0  0  0  0  0  0  0  0  0  0  0
   11.4410    5.5057   -6.0930 C   0  0  0  0  0  0  0  0  0  0  0  0
   11.0491    4.4153   -5.3982 C   0  0  0  0  0  0  0  0  0  0  0  0
   14.4103    7.8536   -8.4712 C   0  0  0  0  0  0  0  0  0  0  0  0
   13.3082    7.2971   -7.7430 C   0  0  0  0  0  0  0  0  0  0  0  0
   12.0738    8.0451   -7.6777 C   0  0  0  0  0  0  0  0  0  0  0  0
   12.1078    9.3625   -8.2471 C   0  0  0  0  0  0  0  0  0  0  0  0
   13.2076    9.9296   -8.9346 C   0  0  0  0  0  0  0  0  0  0  0  0
   14.3538    9.1280   -9.0511 C   0  0  0  0  0  0  0  0  0  0  0  0
   17.6353    5.2968   -5.4791 C   0  0  0  0  0  0  0  0  0  0  0  0
   18.0517    3.9634   -5.4363 C   0  0  0  0  0  0  0  0  0  0  0  0
   19.2753    3.2111   -5.4694 C   0  0  0  0  0  0  0  0  0  0  0  0
   16.2228    5.3426   -5.4125 C   0  0  0  0  0  0  0  0  0  0  0  0
   21.0309   -2.8675   -5.7155 C   0  0  0  0  0  0  0  0  0  0  0  0
   20.8622   -1.5305   -5.6083 O   0  0  0  0  0  0  0  0  0  0  0  0
   19.8305   -0.6718   -5.4410 C   0  0  0  0  0  0  0  0  0  0  0  0
   20.2030    0.7319   -5.4615 C   0  0  0  0  0  0  0  0  0  0  0  0
   18.4734   -1.1056   -5.2735 C   0  0  0  0  0  0  0  0  0  0  0  0
   17.5429   -0.0596   -5.1530 C   0  0  0  0  0  0  0  0  0  0  0  0
   16.1507   -0.1172   -4.9669 C   0  0  0  0  0  0  0  0  0  0  0  0
   15.6119   -1.4068   -4.8420 C   0  0  0  0  0  0  0  0  0  0  0  0
   16.4869   -2.5172   -4.9941 C   0  0  0  0  0  0  0  0  0  0  0  0
   17.9091   -2.4201   -5.2329 C   0  0  0  0  0  0  0  0  0  0  0  0
   20.0235   -3.8678   -5.6572 C   0  0  0  0  0  0  0  0  0  0  0  0
   15.6378    1.2118   -4.9975 C   0  0  0  0  0  0  0  0  0  0  0  0
   16.7798    1.9512   -5.2008 C   0  0  0  0  0  0  0  0  0  0  0  0
   17.9276    1.2398   -5.2539 C   0  0  0  0  0  0  0  0  0  0  0  0
   18.6334   -3.6363   -5.4334 C   0  0  0  0  0  0  0  0  0  0  0  0
   19.2145    1.7646   -5.4031 C   0  0  0  0  0  0  0  0  0  0  0  0
   16.8408    3.3032   -5.3292 C   0  0  0  0  0  0  0  0  0  0  0  0
   15.6867    4.0422   -5.3527 C   0  0  0  0  0  0  0  0  0  0  0  0
   10.8045    7.6259   -7.1308 C   0  0  0  0  0  0  0  0  0  0  0  0
   13.5890    6.0444   -7.1296 C   0  0  0  0  0  0  0  0  0  0  0  0
   12.8163    5.2708   -6.2655 C   0  0  0  0  0  0  0  0  0  0  0  0
   13.2181    4.0766   -5.5555 C   0  0  0  0  0  0  0  0  0  0  0  0
   14.4156    3.3708   -5.2711 C   0  0  0  0  0  0  0  0  0  0  0  0
   11.2422    0.5146   -3.3174 C   0  0  0  0  0  0  0  0  0  0  0  0
   12.0724    1.4003   -4.0349 C   0  0  0  0  0  0  0  0  0  0  0  0
   11.4335    2.5395   -4.4552 C   0  0  0  0  0  0  0  0  0  0  0  0
   12.0233    3.5821   -5.1069 C   0  0  0  0  0  0  0  0  0  0  0  0
    4.6509    1.1627   -2.7259 C   0  0  0  0  0  0  0  0  0  0  0  0
    5.6944    1.8703   -3.2496 C   0  0  0  0  0  0  0  0  0  0  0  0
    3.3744    1.7354   -3.0324 C   0  0  0  0  0  0  0  0  0  0  0  0
    3.2893    2.9431   -3.7908 C   0  0  0  0  0  0  0  0  0  0  0  0
   13.3965    1.1867   -4.3340 O   0  0  0  0  0  0  0  0  0  0  0  0
   14.4161    1.9456   -4.8821 C   0  0  0  0  0  0  0  0  0  0  0  0
   12.2068  -17.6109    7.0039 O   0  0  0  0  0  0  0  0  0  0  0  0
   -3.3949  -15.7962    6.0085 O   0  0  0  0  0  0  0  0  0  0  0  0
   -2.9210  -10.9270    7.0515 O   0  0  0  0  0  0  0  0  0  0  0  0
    6.5726  -22.0093    3.7393 O   0  0  0  0  0  0  0  0  0  0  0  0
    2.4026  -21.0212    5.6498 O   0  0  0  0  0  0  0  0  0  0  0  0
   12.2020  -10.0497    4.3176 O   0  0  0  0  0  0  0  0  0  0  0  0
   18.3876    6.2938   -5.5508 O   0  0  0  0  0  0  0  0  0  0  0  0
    5.4251   -1.7118   -0.2946 C   0  0  0  0  0  0  0  0  0  0  0  0
    6.5926   -2.4245   -0.6305 C   0  0  0  0  0  0  0  0  0  0  0  0
    6.7089   -3.6896    0.0135 C   0  0  0  0  0  0  0  0  0  0  0  0
    9.9684   -0.9562   -1.5359 O   0  0  0  0  0  0  0  0  0  0  0  0
    2.1278  -21.4133    7.0607 C   0  0  0  0  0  0  0  0  0  0  0  0
    9.1476   -6.7236   -1.5476 C   0  0  0  0  0  0  0  0  0  0  0  0
    9.1447   -5.4535   -2.1441 C   0  0  0  0  0  0  0  0  0  0  0  0
   21.5663    1.1024   -5.5358 C   0  0  0  0  0  0  0  0  0  0  0  0
   22.0989    1.6211   -4.5276 O   0  0  0  0  0  0  0  0  0  0  0  0
   22.3866    0.8966   -6.7438 C   0  0  0  0  0  0  0  0  0  0  0  0
   14.2702   -1.5991   -4.6467 O   0  0  0  0  0  0  0  0  0  0  0  0
   13.9437   -2.0918   -3.3324 C   0  0  0  0  0  0  0  0  0  0  0  0
   10.0034   -5.2401   -3.1781 O   0  0  0  0  0  0  0  0  0  0  0  0
   17.8655   -4.7696   -5.4279 O   0  0  0  0  0  0  0  0  0  0  0  0
    4.3379    4.7508   -4.9801 O   0  0  0  0  0  0  0  0  0  0  0  0
    9.7606    8.4943   -7.2829 O   0  0  0  0  0  0  0  0  0  0  0  0
    4.0560  -12.6192    1.3563 O   0  0  0  0  0  0  0  0  0  0  0  0
    1.6379  -10.0370    6.8857 O   0  0  0  0  0  0  0  0  0  0  0  0
   20.4366    3.9034   -5.5692 O   0  0  0  0  0  0  0  0  0  0  0  0
   22.3893   -3.2001   -5.9343 C   0  0  0  0  0  0  0  0  0  0  0  0
   20.4797   -5.2092   -5.8384 C   0  0  0  0  0  0  0  0  0  0  0  0
    2.2734    1.2440   -2.7092 O   0  0  0  0  0  0  0  0  0  0  0  0
   22.8057   -4.5335   -6.1241 C   0  0  0  0  0  0  0  0  0  0  0  0
   21.8247   -5.5382   -6.0644 C   0  0  0  0  0  0  0  0  0  0  0  0
   11.3326  -13.0474    7.4644 O   0  0  0  0  0  0  0  0  0  0  0  0
    9.0604  -12.4692    6.6710 H   0  0  0  0  0  0  0  0  0  0  0  0
    3.7271  -11.4100    6.6575 H   0  0  0  0  0  0  0  0  0  0  0  0
    9.9266  -17.8088    5.9826 H   0  0  0  0  0  0  0  0  0  0  0  0
    7.8132  -17.1864    5.6194 H   0  0  0  0  0  0  0  0  0  0  0  0
   10.7838  -12.1188    4.7596 H   0  0  0  0  0  0  0  0  0  0  0  0
    4.6586   -5.3098   -0.1540 H   0  0  0  0  0  0  0  0  0  0  0  0
    9.0010   -2.9205   -2.8783 H   0  0  0  0  0  0  0  0  0  0  0  0
   10.7813   -8.2164    3.2617 H   0  0  0  0  0  0  0  0  0  0  0  0
    6.5074  -17.3354    3.7786 H   0  0  0  0  0  0  0  0  0  0  0  0
    2.0292  -18.6387    5.5539 H   0  0  0  0  0  0  0  0  0  0  0  0
   -0.9671  -16.4900    5.7632 H   0  0  0  0  0  0  0  0  0  0  0  0
   -3.6074  -13.3397    6.5646 H   0  0  0  0  0  0  0  0  0  0  0  0
   -0.8483   -9.5214    7.1697 H   0  0  0  0  0  0  0  0  0  0  0  0
    7.0040  -19.5403    3.6451 H   0  0  0  0  0  0  0  0  0  0  0  0
    4.3156  -22.5079    4.8036 H   0  0  0  0  0  0  0  0  0  0  0  0
    6.7322    5.1002   -5.1787 H   0  0  0  0  0  0  0  0  0  0  0  0
   15.5105    7.2662   -8.6343 O   0  0  0  0  0  0  0  0  0  0  0  0
   16.0296   -3.4273   -4.9300 H   0  0  0  0  0  0  0  0  0  0  0  0
   11.7230   -0.3096   -2.9641 H   0  0  0  0  0  0  0  0  0  0  0  0
    2.3725    3.3428   -4.0150 H   0  0  0  0  0  0  0  0  0  0  0  0
    6.2103   -3.8445    0.8970 H   0  0  0  0  0  0  0  0  0  0  0  0
    1.0826  -21.7098    7.1552 H   0  0  0  0  0  0  0  0  0  0  0  0
    2.7645  -22.2509    7.3451 H   0  0  0  0  0  0  0  0  0  0  0  0
    2.3201  -20.5667    7.7188 H   0  0  0  0  0  0  0  0  0  0  0  0
    9.7973   -7.4458   -1.8752 H   0  0  0  0  0  0  0  0  0  0  0  0
   22.7834    1.8584   -7.0721 H   0  0  0  0  0  0  0  0  0  0  0  0
   23.2189    0.2296   -6.5122 H   0  0  0  0  0  0  0  0  0  0  0  0
   21.8002    0.4613   -7.5577 H   0  0  0  0  0  0  0  0  0  0  0  0
   12.8800   -2.3243   -3.3123 H   0  0  0  0  0  0  0  0  0  0  0  0
   14.4777   -3.0108   -3.0819 H   0  0  0  0  0  0  0  0  0  0  0  0
   14.1514   -1.3355   -2.5728 H   0  0  0  0  0  0  0  0  0  0  0  0
   10.3918   -4.3515   -3.0315 H   0  0  0  0  0  0  0  0  0  0  0  0
   17.9837   -5.1587   -6.3200 H   0  0  0  0  0  0  0  0  0  0  0  0
    3.3880    4.9781   -4.9825 H   0  0  0  0  0  0  0  0  0  0  0  0
    9.4612    8.6983   -6.3717 H   0  0  0  0  0  0  0  0  0  0  0  0
   21.0464    3.3309   -6.0771 H   0  0  0  0  0  0  0  0  0  0  0  0
   23.0927   -2.4546   -5.9630 H   0  0  0  0  0  0  0  0  0  0  0  0
   19.8363   -6.0030   -5.8149 H   0  0  0  0  0  0  0  0  0  0  0  0
   22.0794   -6.5213   -6.1942 H   0  0  0  0  0  0  0  0  0  0  0  0
   12.6988  -15.2182    7.7142 H   0  0  0  0  0  0  0  0  0  0  0  0
   12.3084  -13.0956    7.5200 H   0  0  0  0  0  0  0  0  0  0  0  0
   13.1500   11.2534   -9.4938 C   0  0  0  0  0  0  0  0  0  0  0  0
   12.0709   11.8936   -9.4767 O   0  0  0  0  0  0  0  0  0  0  0  0
   14.2993   11.9542  -10.1169 C   0  0  0  0  0  0  0  0  0  0  0  0
   24.2304   -4.8732   -6.4031 C   0  0  1  0  0  0  0  0  0  0  0  0
   24.6070   -4.5916   -7.8832 C   0  0  2  0  0  0  0  0  0  0  0  0
   26.0773   -4.9355   -8.2161 C   0  0  0  0  0  0  0  0  0  0  0  0
    3.2242   -0.8689   -0.8881 C   0  0  2  0  0  0  0  0  0  0  0  0
    2.6304    0.2406    0.0266 C   0  0  2  0  0  0  0  0  0  0  0  0
    2.7390   -0.0562    1.5411 C   0  0  0  0  0  0  0  0  0  0  0  0
    5.9845  -12.1563    6.1470 H   0  0  0  0  0  0  0  0  0  0  0  0
    5.6989  -13.6920    2.9607 H   0  0  0  0  0  0  0  0  0  0  0  0
   11.2905    9.9688   -8.1653 H   0  0  0  0  0  0  0  0  0  0  0  0
   15.1755    9.4717   -9.5574 H   0  0  0  0  0  0  0  0  0  0  0  0
   15.6826    6.2081   -5.3829 H   0  0  0  0  0  0  0  0  0  0  0  0
   14.4814    5.6041   -7.3388 H   0  0  0  0  0  0  0  0  0  0  0  0
    4.9411   -2.0153    0.5620 H   0  0  0  0  0  0  0  0  0  0  0  0
   14.0263   12.9619  -10.4403 H   0  0  0  0  0  0  0  0  0  0  0  0
   15.1155   12.0408   -9.3980 H   0  0  0  0  0  0  0  0  0  0  0  0
   14.6448   11.4038  -10.9936 H   0  0  0  0  0  0  0  0  0  0  0  0
   24.8790   -4.3008   -5.7337 H   0  0  0  0  0  0  0  0  0  0  0  0
   24.4149   -5.9316   -6.1939 H   0  0  0  0  0  0  0  0  0  0  0  0
   24.4379   -3.5349   -8.1087 H   0  0  0  0  0  0  0  0  0  0  0  0
   23.9586   -5.1851   -8.5349 H   0  0  0  0  0  0  0  0  0  0  0  0
   26.7563   -4.3339   -7.6092 H   0  0  0  0  0  0  0  0  0  0  0  0
   26.2752   -5.9928   -8.0298 H   0  0  0  0  0  0  0  0  0  0  0  0
   26.2754   -4.7269   -9.2694 H   0  0  0  0  0  0  0  0  0  0  0  0
    2.9149   -1.8330   -0.4693 H   0  0  0  0  0  0  0  0  0  0  0  0
    2.7453   -0.8918   -1.8639 H   0  0  0  0  0  0  0  0  0  0  0  0
    1.5683    0.3416   -0.2135 H   0  0  0  0  0  0  0  0  0  0  0  0
    3.1123    1.2006   -0.1750 H   0  0  0  0  0  0  0  0  0  0  0  0
    2.2324    0.7315    2.1038 H   0  0  0  0  0  0  0  0  0  0  0  0
    3.7841   -0.0891    1.8540 H   0  0  0  0  0  0  0  0  0  0  0  0
    2.2639   -1.0098    1.7851 H   0  0  0  0  0  0  0  0  0  0  0  0
    8.3261   -7.9547   -0.1172 H   0  0  0  0  0  0  0  0  0  0  0  0
    8.4452   -7.3002    2.3542 H   0  0  0  0  0  0  0  0  0  0  0  0
    2.7456   -6.1424    1.5890 C   0  0  0  0  0  0  0  0  0  0  0  0
    2.3037   -5.1360    0.9837 O   0  0  0  0  0  0  0  0  0  0  0  0
    1.8453   -6.7984    2.5640 C   0  0  0  0  0  0  0  0  0  0  0  0
    1.9202   -9.3604    5.6457 C   0  0  0  0  0  0  0  0  0  0  0  0
    0.8677   -6.3137    2.5804 H   0  0  0  0  0  0  0  0  0  0  0  0
    2.2754   -6.7346    3.5644 H   0  0  0  0  0  0  0  0  0  0  0  0
    1.6961   -7.8457    2.3007 H   0  0  0  0  0  0  0  0  0  0  0  0
    2.7407   -8.6668    5.8243 H   0  0  0  0  0  0  0  0  0  0  0  0
    2.2330  -10.0602    4.8674 H   0  0  0  0  0  0  0  0  0  0  0  0
    1.0608   -8.7865    5.2916 H   0  0  0  0  0  0  0  0  0  0  0  0
    4.7027  -10.2212    0.9120 H   0  0  0  0  0  0  0  0  0  0  0  0
    4.3242   -8.1604    2.5995 H   0  0  0  0  0  0  0  0  0  0  0  0
  1  2  1  0  0  0  0
  2  3  2  0  0  0  0
  5  6  2  0  0  0  0
  7  8  2  0  0  0  0
  8  9  1  0  0  0  0
  4  5  1  0  0  0  0
  4  9  2  0  0  0  0
  3  4  1  0  0  0  0
 10 11  2  0  0  0  0
 11 12  1  0  0  0  0
  8 10  1  0  0  0  0
  9 12  1  0  0  0  0
 13 14  1  0  0  0  0
  6 13  1  0  0  0  0
  7 15  1  0  0  0  0
 16 17  2  0  0  0  0
 17 18  1  0  0  0  0
 18 19  1  0  0  0  0
  1 19  2  0  0  0  0
  2 16  1  0  0  0  0
 16 20  1  0  0  0  0
 20 21  2  0  0  0  0
 21  5  1  0  0  0  0
 22 23  2  0  0  0  0
 10 22  1  0  0  0  0
 23 15  1  0  0  0  0
 24 25  1  0  0  0  0
 24 12  2  0  0  0  0
 26 27  1  0  0  0  0
 27 28  2  0  0  0  0
 30 31  1  0  0  0  0
 29 30  1  0  0  0  0
 29 32  2  0  0  0  0
 33 34  1  0  0  0  0
 28 33  1  0  0  0  0
 32 35  1  0  0  0  0
 36 37  2  0  0  0  0
 37 38  1  0  0  0  0
 38 30  2  0  0  0  0
 34 26  2  0  0  0  0
 39 40  1  0  0  0  0
 33 40  2  0  0  0  0
 35 39  1  0  0  0  0
 11 41  1  0  0  0  0
 25 42  1  0  0  0  0
 41 42  2  0  0  0  0
 40 43  1  0  0  0  0
 44 41  1  0  0  0  0
 44 45  2  0  0  0  0
 22 45  1  0  0  0  0
 45 34  1  0  0  0  0
 21 46  1  0  0  0  0
 46 47  1  0  0  0  0
 13 48  2  0  0  0  0
 48 47  1  0  0  0  0
 46 49  2  0  0  0  0
 50 51  2  0  0  0  0
 51 52  1  0  0  0  0
 52 47  2  0  0  0  0
 52 53  1  0  0  0  0
 53 54  1  0  0  0  0
 54 55  2  0  0  0  0
 55 48  1  0  0  0  0
 55 56  1  0  0  0  0
 56 57  1  0  0  0  0
 57 58  2  0  0  0  0
 54 59  1  0  0  0  0
 58 59  1  0  0  0  0
 59 60  2  0  0  0  0
 56 14  2  0  0  0  0
 60 61  1  0  0  0  0
 61 62  1  0  0  0  0
 58 63  1  0  0  0  0
 62 63  2  0  0  0  0
 63 64  1  0  0  0  0
 64 65  1  0  0  0  0
 57 66  1  0  0  0  0
 66 65  2  0  0  0  0
 49 67  1  0  0  0  0
 67 50  1  0  0  0  0
 67 68  2  0  0  0  0
 68 69  1  0  0  0  0
 69 70  1  0  0  0  0
 70 71  2  0  0  0  0
 50 71  1  0  0  0  0
 72 73  1  0  0  0  0
 73 74  2  0  0  0  0
 74 75  1  0  0  0  0
 76 75  2  0  0  0  0
 74 77  1  0  0  0  0
 78 79  1  0  0  0  0
 79 80  2  0  0  0  0
 80 75  1  0  0  0  0
 80 81  1  0  0  0  0
 77 82  2  0  0  0  0
 82 78  1  0  0  0  0
 83 84  2  0  0  0  0
 82 84  1  0  0  0  0
 84 85  1  0  0  0  0
 85 86  1  0  0  0  0
 86 87  1  0  0  0  0
 78 87  2  0  0  0  0
 89 90  1  0  0  0  0
 90 91  2  0  0  0  0
 91 92  1  0  0  0  0
 92 93  2  0  0  0  0
 88 89  1  0  0  0  0
 88 93  1  0  0  0  0
 94 95  1  0  0  0  0
 95 96  2  0  0  0  0
 97 94  1  0  0  0  0
 98 99  1  0  0  0  0
100101  2  0  0  0  0
 99100  1  0  0  0  0
103104  1  0  0  0  0
104105  1  0  0  0  0
105106  2  0  0  0  0
106107  1  0  0  0  0
102103  2  0  0  0  0
102107  1  0  0  0  0
100102  1  0  0  0  0
 98108  2  0  0  0  0
109110  1  0  0  0  0
110111  1  0  0  0  0
103111  1  0  0  0  0
104109  2  0  0  0  0
107112  2  0  0  0  0
112108  1  0  0  0  0
111113  2  0  0  0  0
101113  1  0  0  0  0
 96113  1  0  0  0  0
 95114  1  0  0  0  0
114110  2  0  0  0  0
114115  1  0  0  0  0
 97115  2  0  0  0  0
116 85  2  0  0  0  0
116 90  1  0  0  0  0
 89117  2  0  0  0  0
117118  1  0  0  0  0
 86118  2  0  0  0  0
118119  1  0  0  0  0
119120  1  0  0  0  0
115120  1  0  0  0  0
 81121  2  0  0  0  0
121122  1  0  0  0  0
 79123  1  0  0  0  0
123122  2  0  0  0  0
123124  1  0  0  0  0
 87124  1  0  0  0  0
119124  2  0  0  0  0
 73126  1  0  0  0  0
126125  2  0  0  0  0
 76126  1  0  0  0  0
125127  1  0  0  0  0
127128  1  0  0  0  0
128 72  2  0  0  0  0
122129  1  0  0  0  0
120130  2  0  0  0  0
129130  1  0  0  0  0
130109  1  0  0  0  0
 18131  2  0  0  0  0
 61132  2  0  0  0  0
 64133  2  0  0  0  0
 69134  2  0  0  0  0
 71135  1  0  0  0  0
 25136  2  0  0  0  0
 94137  2  0  0  0  0
 36138  1  0  0  0  0
138139  2  0  0  0  0
 29139  1  0  0  0  0
139140  1  0  0  0  0
140 39  2  0  0  0  0
 76 38  1  0  0  0  0
 31 81  1  0  0  0  0
 31141  2  0  0  0  0
 37125  1  0  0  0  0
135142  1  0  0  0  0
 43143  2  0  0  0  0
 35144  2  0  0  0  0
144143  1  0  0  0  0
101145  1  0  0  0  0
145146  2  0  0  0  0
145147  1  0  0  0  0
105148  1  0  0  0  0
148149  1  0  0  0  0
144150  1  0  0  0  0
112151  1  0  0  0  0
 72152  1  0  0  0  0
116153  1  0  0  0  0
 15154  2  0  0  0  0
 66155  1  0  0  0  0
 96156  1  0  0  0  0
 98157  1  0  0  0  0
108158  1  0  0  0  0
127159  2  0  0  0  0
157160  2  0  0  0  0
160161  1  0  0  0  0
161158  2  0  0  0  0
  1162  1  0  0  0  0
  3163  1  0  0  0  0
 14164  1  0  0  0  0
 17165  1  0  0  0  0
 20166  1  0  0  0  0
 24167  1  0  0  0  0
 28168  1  0  0  0  0
 32169  1  0  0  0  0
 42170  1  0  0  0  0
 49171  1  0  0  0  0
 51172  1  0  0  0  0
 60173  1  0  0  0  0
 62174  1  0  0  0  0
 65175  1  0  0  0  0
 68176  1  0  0  0  0
 70177  1  0  0  0  0
 77178  1  0  0  0  0
 88179  2  0  0  0  0
106180  1  0  0  0  0
121181  1  0  0  0  0
128182  1  0  0  0  0
140183  1  0  0  0  0
142184  1  0  0  0  0
142185  1  0  0  0  0
142186  1  0  0  0  0
143187  1  0  0  0  0
147188  1  0  0  0  0
147189  1  0  0  0  0
147190  1  0  0  0  0
149191  1  0  0  0  0
149192  1  0  0  0  0
149193  1  0  0  0  0
150194  1  0  0  0  0
151195  1  0  0  0  0
152196  1  0  0  0  0
153197  1  0  0  0  0
156198  1  0  0  0  0
157199  1  0  0  0  0
158200  1  0  0  0  0
161201  1  0  0  0  0
 19202  1  0  0  0  0
162203  1  0  0  0  0
 92204  1  0  0  0  0
204205  2  0  0  0  0
204206  1  0  0  0  0
207160  1  0  0  0  0
207208  1  0  0  0  0
208209  1  0  0  0  0
210 36  1  0  0  0  0
210211  1  0  0  0  0
211212  1  0  0  0  0
  6213  1  0  0  0  0
  7214  1  0  0  0  0
 91215  1  0  0  0  0
 93216  1  0  0  0  0
 97217  1  0  0  0  0
117218  1  0  0  0  0
138219  1  0  0  0  0
206220  1  0  0  0  0
206221  1  0  0  0  0
206222  1  0  0  0  0
207223  1  0  0  0  0
207224  1  0  0  0  0
208225  1  0  0  0  0
208226  1  0  0  0  0
209227  1  0  0  0  0
209228  1  0  0  0  0
209229  1  0  0  0  0
210230  1  0  0  0  0
210231  1  0  0  0  0
211232  1  0  0  0  0
211233  1  0  0  0  0
212234  1  0  0  0  0
212235  1  0  0  0  0
212236  1  0  0  0  0
 43237  1  0  0  0  0
 44238  1  0  0  0  0
 27239  1  0  0  0  0
239240  2  0  0  0  0
239241  1  0  0  0  0
155242  1  0  0  0  0
241243  1  0  0  0  0
241244  1  0  0  0  0
241245  1  0  0  0  0
242246  1  0  0  0  0
242247  1  0  0  0  0
242248  1  0  0  0  0
 23249  1  0  0  0  0
 26250  1  0  0  0  0
M  END
