
  Mrv2101 10312211313D          

140166  0  0  0  0            999 V2000
   -6.2171    8.8762   10.1876 C   0  0  0  0  0  0  0  0  0  0  0  0
   -5.0482    9.6430   10.4563 C   0  0  0  0  0  0  0  0  0  0  0  0
   -3.8406    9.4407    9.7386 C   0  0  0  0  0  0  0  0  0  0  0  0
   -3.7661    8.5172    8.6703 C   0  0  0  0  0  0  0  0  0  0  0  0
   -4.9939    7.8245    8.4415 C   0  0  0  0  0  0  0  0  0  0  0  0
   -6.1662    7.8062    9.2550 C   0  0  0  0  0  0  0  0  0  0  0  0
   -5.0215    7.0045    7.3514 C   0  0  0  0  0  0  0  0  0  0  0  0
   -6.0039    6.0599    7.1644 C   0  0  0  0  0  0  0  0  0  0  0  0
   -7.0007    5.7139    8.0764 C   0  0  0  0  0  0  0  0  0  0  0  0
   -7.1382    6.7287    9.0905 C   0  0  0  0  0  0  0  0  0  0  0  0
   -3.9064    6.7472    6.5914 C   0  0  0  0  0  0  0  0  0  0  0  0
   -4.2410    5.6755    5.8470 C   0  0  0  0  0  0  0  0  0  0  0  0
   -5.5261    5.2504    6.2018 C   0  0  0  0  0  0  0  0  0  0  0  0
   -2.6003    7.1466    6.8786 C   0  0  0  0  0  0  0  0  0  0  0  0
   -1.5607    6.3178    6.2731 C   0  0  0  0  0  0  0  0  0  0  0  0
   -3.2449    4.8383    5.3749 C   0  0  0  0  0  0  0  0  0  0  0  0
   -3.7481    3.5788    5.1455 C   0  0  0  0  0  0  0  0  0  0  0  0
   -5.0234    3.1503    5.5110 C   0  0  0  0  0  0  0  0  0  0  0  0
   -5.9609    3.9370    6.1379 C   0  0  0  0  0  0  0  0  0  0  0  0
   -6.9244    3.3827    7.0267 C   0  0  0  0  0  0  0  0  0  0  0  0
   -6.9702    1.9148    7.0651 C   0  0  0  0  0  0  0  0  0  0  0  0
   -5.9414    1.0706    6.4522 C   0  0  0  0  0  0  0  0  0  0  0  0
   -5.0072    1.8236    5.7279 C   0  0  0  0  0  0  0  0  0  0  0  0
   -1.8547    5.0593    5.5874 C   0  0  0  0  0  0  0  0  0  0  0  0
   -0.9805    3.9096    5.2905 C   0  0  0  0  0  0  0  0  0  0  0  0
   -1.5314    2.5536    5.1599 C   0  0  0  0  0  0  0  0  0  0  0  0
   -2.9182    2.5281    5.1164 C   0  0  0  0  0  0  0  0  0  0  0  0
   -3.7165    1.4661    5.4150 C   0  0  0  0  0  0  0  0  0  0  0  0
   -3.2118    0.2354    5.6239 C   0  0  0  0  0  0  0  0  0  0  0  0
   -4.1920   -0.6882    6.0528 C   0  0  0  0  0  0  0  0  0  0  0  0
   -5.5578   -0.3391    6.4852 C   0  0  0  0  0  0  0  0  0  0  0  0
   -1.8250    0.0539    5.3252 C   0  0  0  0  0  0  0  0  0  0  0  0
   -1.4500   -1.3210    5.1920 C   0  0  0  0  0  0  0  0  0  0  0  0
   -2.4216   -2.3415    5.4518 C   0  0  0  0  0  0  0  0  0  0  0  0
   -3.7152   -1.9868    5.9324 C   0  0  0  0  0  0  0  0  0  0  0  0
   -0.1861   -1.7548    4.7305 C   0  0  0  0  0  0  0  0  0  0  0  0
    0.0642   -3.1221    4.4512 C   0  0  0  0  0  0  0  0  0  0  0  0
   -0.9382   -4.1119    4.6219 C   0  0  0  0  0  0  0  0  0  0  0  0
   -2.1703   -3.7171    5.1693 C   0  0  0  0  0  0  0  0  0  0  0  0
   -0.7945   -5.4619    4.2184 C   0  0  0  0  0  0  0  0  0  0  0  0
   -1.8577   -6.4235    4.2996 C   0  0  0  0  0  0  0  0  0  0  0  0
   -3.0604   -6.0572    4.9999 C   0  0  0  0  0  0  0  0  0  0  0  0
   -3.1764   -4.6971    5.3801 C   0  0  0  0  0  0  0  0  0  0  0  0
   -4.6509   -2.9619    6.2069 C   0  0  0  0  0  0  0  0  0  0  0  0
   -4.3793   -4.2641    5.9417 C   0  0  0  0  0  0  0  0  0  0  0  0
   -5.9426   -2.7889    6.6615 C   0  0  0  0  0  0  0  0  0  0  0  0
   -6.4562   -4.1122    6.7342 C   0  0  0  0  0  0  0  0  0  0  0  0
   -5.4858   -5.0209    6.2321 C   0  0  0  0  0  0  0  0  0  0  0  0
   -2.5771    8.1742    7.8923 C   0  0  0  0  0  0  0  0  0  0  0  0
   -1.4781    8.7099    8.1630 O   0  0  0  0  0  0  0  0  0  0  0  0
   -6.3983   -1.4492    6.8626 C   0  0  0  0  0  0  0  0  0  0  0  0
   -7.5555   -1.2668    7.3026 O   0  0  0  0  0  0  0  0  0  0  0  0
    0.3844    4.1024    5.2124 O   0  0  0  0  0  0  0  0  0  0  0  0
    0.6717    4.4796    3.9164 C   0  0  0  0  0  0  0  0  0  0  0  0
    0.8731    3.5231    2.8878 C   0  0  0  0  0  0  0  0  0  0  0  0
    0.7355    3.9059    1.5233 C   0  0  0  0  0  0  0  0  0  0  0  0
    0.5924    5.2799    1.2107 C   0  0  0  0  0  0  0  0  0  0  0  0
    0.6332    6.2486    2.2350 C   0  0  0  0  0  0  0  0  0  0  0  0
    0.6656    5.8489    3.5790 C   0  0  0  0  0  0  0  0  0  0  0  0
    1.1833    2.1846    3.1882 C   0  0  0  0  0  0  0  0  0  0  0  0
    1.2595    1.2282    2.1702 C   0  0  0  0  0  0  0  0  0  0  0  0
    0.9724    1.5677    0.8268 C   0  0  0  0  0  0  0  0  0  0  0  0
    0.7121    2.9252    0.4849 C   0  0  0  0  0  0  0  0  0  0  0  0
    0.9464    0.5696   -0.1732 C   0  0  0  0  0  0  0  0  0  0  0  0
    0.6158    0.9088   -1.5070 C   0  0  0  0  0  0  0  0  0  0  0  0
    0.2688    2.2571   -1.8462 C   0  0  0  0  0  0  0  0  0  0  0  0
    0.4254    3.2983   -0.8690 C   0  0  0  0  0  0  0  0  0  0  0  0
    0.3290    4.6988   -1.1518 C   0  0  0  0  0  0  0  0  0  0  0  0
    0.4056    5.6586   -0.1252 C   0  0  0  0  0  0  0  0  0  0  0  0
    0.6130   -0.1022   -2.5039 C   0  0  0  0  0  0  0  0  0  0  0  0
    0.1772    0.1692   -3.8066 C   0  0  0  0  0  0  0  0  0  0  0  0
   -0.2786    1.4508   -4.1269 C   0  0  0  0  0  0  0  0  0  0  0  0
   -0.2484    2.4668   -3.1578 C   0  0  0  0  0  0  0  0  0  0  0  0
    1.2381   -0.7369    0.1578 O   0  0  0  0  0  0  0  0  0  0  0  0
    0.0866   -1.4961    0.5790 C   0  0  0  0  0  0  0  0  0  0  0  0
    0.1550    5.2375   -2.4001 O   0  0  0  0  0  0  0  0  0  0  0  0
    1.3911    5.5440   -3.0711 C   0  0  0  0  0  0  0  0  0  0  0  0
   -7.3937    9.2410   10.8009 O   0  0  0  0  0  0  0  0  0  0  0  0
   -8.1910    9.9267    9.9049 C   0  0  0  0  0  0  0  0  0  0  0  0
   -9.2518    9.2500    9.2697 C   0  0  0  0  0  0  0  0  0  0  0  0
  -10.0005    9.8458    8.2314 C   0  0  0  0  0  0  0  0  0  0  0  0
   -9.7337   11.1975    7.8984 C   0  0  0  0  0  0  0  0  0  0  0  0
   -8.7280   11.9134    8.5774 C   0  0  0  0  0  0  0  0  0  0  0  0
   -7.9581   11.2791    9.5714 C   0  0  0  0  0  0  0  0  0  0  0  0
  -11.0087    9.0632    7.5197 C   0  0  0  0  0  0  0  0  0  0  0  0
  -11.7218    9.8034    6.4815 C   0  0  0  0  0  0  0  0  0  0  0  0
  -11.2507    7.7937    7.7884 O   0  0  0  0  0  0  0  0  0  0  0  0
  -12.7237    9.1662    5.7180 C   0  0  0  0  0  0  0  0  0  0  0  0
  -13.4453    9.8705    4.7388 C   0  0  0  0  0  0  0  0  0  0  0  0
  -13.1881   11.2399    4.4759 C   0  0  0  0  0  0  0  0  0  0  0  0
  -12.1565   11.8656    5.2256 C   0  0  0  0  0  0  0  0  0  0  0  0
  -11.4364   11.1647    6.2130 C   0  0  0  0  0  0  0  0  0  0  0  0
  -10.4580   11.8017    6.9163 O   0  0  0  0  0  0  0  0  0  0  0  0
   -7.5313    4.3611    7.9282 C   0  0  0  0  0  0  0  0  0  0  0  0
   -8.4335    3.9856    8.7107 O   0  0  0  0  0  0  0  0  0  0  0  0
  -13.9634   11.8939    3.5064 C   0  0  0  0  0  0  0  0  0  0  0  0
  -13.8420   13.1631    3.0902 C   0  0  0  0  0  0  0  0  0  0  0  0
   -1.7636   -7.6633    3.6274 C   0  0  0  0  0  0  0  0  0  0  0  0
   -0.7340   -8.1519    2.9151 C   0  0  0  0  0  0  0  0  0  0  0  0
   -1.0359    1.2292    5.1631 O   0  0  0  0  0  0  0  0  0  0  0  0
   -5.3744   -6.3997    5.9383 C   0  0  0  0  0  0  0  0  0  0  0  0
   -4.1817   -6.9019    5.3253 C   0  0  0  0  0  0  0  0  0  0  0  0
   -5.0761   10.3659   11.1805 H   0  0  0  0  0  0  0  0  0  0  0  0
   -3.0143    9.9815    9.9998 H   0  0  0  0  0  0  0  0  0  0  0  0
   -7.8983    6.6339    9.7632 H   0  0  0  0  0  0  0  0  0  0  0  0
   -0.5861    6.5615    6.4572 H   0  0  0  0  0  0  0  0  0  0  0  0
   -7.6835    1.4706    7.6470 H   0  0  0  0  0  0  0  0  0  0  0  0
    0.5531   -1.0699    4.5591 H   0  0  0  0  0  0  0  0  0  0  0  0
    0.9822   -3.3884    4.0899 H   0  0  0  0  0  0  0  0  0  0  0  0
    0.1068   -5.7187    3.8160 H   0  0  0  0  0  0  0  0  0  0  0  0
   -7.3902   -4.3696    7.0584 H   0  0  0  0  0  0  0  0  0  0  0  0
    0.6010    7.2473    2.0113 H   0  0  0  0  0  0  0  0  0  0  0  0
    0.6409    6.5625    4.3083 H   0  0  0  0  0  0  0  0  0  0  0  0
    1.3652    1.8922    4.1526 H   0  0  0  0  0  0  0  0  0  0  0  0
    1.5104    0.2729    2.4361 H   0  0  0  0  0  0  0  0  0  0  0  0
    0.3120    6.6509   -0.3589 H   0  0  0  0  0  0  0  0  0  0  0  0
    0.9192   -1.0562   -2.2963 H   0  0  0  0  0  0  0  0  0  0  0  0
    0.1763   -0.5686   -4.5139 H   0  0  0  0  0  0  0  0  0  0  0  0
   -0.6355    1.6433   -5.0655 H   0  0  0  0  0  0  0  0  0  0  0  0
   -0.6476    3.3545   -3.4469 H   0  0  0  0  0  0  0  0  0  0  0  0
    0.4235   -2.4981    0.8446 H   0  0  0  0  0  0  0  0  0  0  0  0
   -0.3894   -1.0571    1.4583 H   0  0  0  0  0  0  0  0  0  0  0  0
   -0.6525   -1.5836   -0.2202 H   0  0  0  0  0  0  0  0  0  0  0  0
    1.1524    5.9581   -4.0506 H   0  0  0  0  0  0  0  0  0  0  0  0
    1.9715    6.2906   -2.5223 H   0  0  0  0  0  0  0  0  0  0  0  0
    1.9969    4.6469   -3.2187 H   0  0  0  0  0  0  0  0  0  0  0  0
   -9.4654    8.2978    9.5595 H   0  0  0  0  0  0  0  0  0  0  0  0
   -8.5446   12.8915    8.3409 H   0  0  0  0  0  0  0  0  0  0  0  0
   -7.2135   11.7983   10.0405 H   0  0  0  0  0  0  0  0  0  0  0  0
  -12.9448    8.1788    5.8697 H   0  0  0  0  0  0  0  0  0  0  0  0
  -14.1706    9.3628    4.2205 H   0  0  0  0  0  0  0  0  0  0  0  0
  -11.9144   12.8445    5.0705 H   0  0  0  0  0  0  0  0  0  0  0  0
  -14.6932   11.3755    3.0688 H   0  0  0  0  0  0  0  0  0  0  0  0
  -14.4583   13.5163    2.3961 H   0  0  0  0  0  0  0  0  0  0  0  0
  -13.1535   13.7773    3.4472 H   0  0  0  0  0  0  0  0  0  0  0  0
   -2.5575   -8.2559    3.6278 H   0  0  0  0  0  0  0  0  0  0  0  0
   -0.8191   -9.0279    2.4549 H   0  0  0  0  0  0  0  0  0  0  0  0
    0.1257   -7.6767    2.8131 H   0  0  0  0  0  0  0  0  0  0  0  0
   -6.1500   -7.0326    6.1418 H   0  0  0  0  0  0  0  0  0  0  0  0
   -4.1536   -7.9028    5.1207 H   0  0  0  0  0  0  0  0  0  0  0  0
  1  2  2  0  0  0  0
  2  3  1  0  0  0  0
  3  4  2  0  0  0  0
  4  5  1  0  0  0  0
  5  6  1  0  0  0  0
  1  6  1  0  0  0  0
  7  8  1  0  0  0  0
  8  9  2  0  0  0  0
  9 10  1  0  0  0  0
  5  7  2  0  0  0  0
  6 10  2  0  0  0  0
  7 11  1  0  0  0  0
  8 13  1  0  0  0  0
 14 15  1  0  0  0  0
 11 14  2  0  0  0  0
 18 19  1  0  0  0  0
 12 16  1  0  0  0  0
 13 19  1  0  0  0  0
 13 12  2  0  0  0  0
 20 21  1  0  0  0  0
 21 22  2  0  0  0  0
 22 23  4  0  0  0  0
 18 23  4  0  0  0  0
 19 20  2  0  0  0  0
 24 25  1  0  0  0  0
 25 26  2  0  0  0  0
 26 27  1  0  0  0  0
 16 24  1  0  0  0  0
 17 27  4  0  0  0  0
 17 16  2  0  0  0  0
 27 28  4  0  0  0  0
 17 18  4  0  0  0  0
 29 30  4  0  0  0  0
 28 29  4  0  0  0  0
 32 33  4  0  0  0  0
 33 34  4  0  0  0  0
 34 35  4  0  0  0  0
 29 32  4  0  0  0  0
 30 35  4  0  0  0  0
 36 37  4  0  0  0  0
 37 38  4  0  0  0  0
 38 39  4  0  0  0  0
 33 36  4  0  0  0  0
 40 41  4  0  0  0  0
 41 42  4  0  0  0  0
 42 43  4  0  0  0  0
 38 40  4  0  0  0  0
 39 43  4  0  0  0  0
 44 45  2  0  0  0  0
 43 45  1  0  0  0  0
 39 34  4  0  0  0  0
 35 44  1  0  0  0  0
 46 47  2  0  0  0  0
 47 48  1  0  0  0  0
 44 46  1  0  0  0  0
 14 49  1  0  0  0  0
  4 49  1  0  0  0  0
 49 50  2  0  0  0  0
 31 51  1  0  0  0  0
 46 51  1  0  0  0  0
 51 52  2  0  0  0  0
 25 53  1  0  0  0  0
 53 54  1  0  0  0  0
 55 56  1  0  0  0  0
 56 57  2  0  0  0  0
 57 58  1  0  0  0  0
 58 59  2  0  0  0  0
 54 55  2  0  0  0  0
 54 59  1  0  0  0  0
 60 61  2  0  0  0  0
 61 62  1  0  0  0  0
 62 63  2  0  0  0  0
 55 60  1  0  0  0  0
 64 65  2  0  0  0  0
 65 66  1  0  0  0  0
 66 67  2  0  0  0  0
 62 64  1  0  0  0  0
 63 67  1  0  0  0  0
 68 69  2  0  0  0  0
 56 63  1  0  0  0  0
 67 68  1  0  0  0  0
 69 57  1  0  0  0  0
 70 71  2  0  0  0  0
 71 72  1  0  0  0  0
 72 73  2  0  0  0  0
 65 70  1  0  0  0  0
 66 73  1  0  0  0  0
 64 74  1  0  0  0  0
 74 75  1  0  0  0  0
 68 76  1  0  0  0  0
 76 77  1  0  0  0  0
 78 79  1  0  0  0  0
 80 81  2  0  0  0  0
 81 82  1  0  0  0  0
 82 83  2  0  0  0  0
 83 84  1  0  0  0  0
 79 80  1  0  0  0  0
 79 84  2  0  0  0  0
 81 85  1  0  0  0  0
 85 86  1  0  0  0  0
 85 87  2  0  0  0  0
 88 89  2  0  0  0  0
 89 90  1  0  0  0  0
 90 91  2  0  0  0  0
 91 92  1  0  0  0  0
 86 88  1  0  0  0  0
 86 92  2  0  0  0  0
 92 93  1  0  0  0  0
 82 93  1  0  0  0  0
  9 94  1  0  0  0  0
 20 94  1  0  0  0  0
 94 95  2  0  0  0  0
 78  1  1  0  0  0  0
 90 96  1  0  0  0  0
 96 97  2  0  0  0  0
 41 98  1  0  0  0  0
 98 99  2  0  0  0  0
 32100  1  0  0  0  0
 26100  1  0  0  0  0
 11 12  1  0  0  0  0
 15 24  2  0  0  0  0
 23 28  4  0  0  0  0
 22 31  4  0  0  0  0
 31 30  4  0  0  0  0
 48 45  1  0  0  0  0
 48101  2  0  0  0  0
101102  1  0  0  0  0
102 42  2  0  0  0  0
  2103  1  0  0  0  0
  3104  1  0  0  0  0
 10105  1  0  0  0  0
 15106  1  0  0  0  0
 21107  1  0  0  0  0
 36108  1  0  0  0  0
 37109  1  0  0  0  0
 40110  1  0  0  0  0
 47111  1  0  0  0  0
 58112  1  0  0  0  0
 59113  1  0  0  0  0
 60114  1  0  0  0  0
 61115  1  0  0  0  0
 69116  1  0  0  0  0
 70117  1  0  0  0  0
 71118  1  0  0  0  0
 72119  1  0  0  0  0
 73120  1  0  0  0  0
 75121  1  0  0  0  0
 75122  1  0  0  0  0
 75123  1  0  0  0  0
 77124  1  0  0  0  0
 77125  1  0  0  0  0
 77126  1  0  0  0  0
 80127  1  0  0  0  0
 83128  1  0  0  0  0
 84129  1  0  0  0  0
 88130  1  0  0  0  0
 89131  1  0  0  0  0
 91132  1  0  0  0  0
 96133  1  0  0  0  0
 97134  1  0  0  0  0
 97135  1  0  0  0  0
 98136  1  0  0  0  0
 99137  1  0  0  0  0
 99138  1  0  0  0  0
101139  1  0  0  0  0
102140  1  0  0  0  0
M  END
