
  Mrv2101 10312211313D          

147171  0  0  0  0            999 V2000
   -2.2479   -7.9168   11.5618 C   0  0  0  0  0  0  0  0  0  0  0  0
   -3.5922   -7.6259   11.1504 C   0  0  0  0  0  0  0  0  0  0  0  0
   -4.2781   -8.6081   10.3939 C   0  0  0  0  0  0  0  0  0  0  0  0
   -3.6598   -9.7967    9.9924 C   0  0  0  0  0  0  0  0  0  0  0  0
   -2.3097  -10.0518   10.3087 C   0  0  0  0  0  0  0  0  0  0  0  0
   -1.6063   -9.1196   11.1143 C   0  0  0  0  0  0  0  0  0  0  0  0
   -1.5011   -7.0628   12.4152 C   0  0  0  0  0  0  0  0  0  0  0  0
   -0.2019   -7.3844   12.8296 C   0  0  0  0  0  0  0  0  0  0  0  0
    0.4167   -8.5770   12.4020 C   0  0  0  0  0  0  0  0  0  0  0  0
   -0.2718   -9.4352   11.5035 C   0  0  0  0  0  0  0  0  0  0  0  0
    0.3774  -10.6045   10.9996 C   0  0  0  0  0  0  0  0  0  0  0  0
    1.6514  -10.9954   11.5024 C   0  0  0  0  0  0  0  0  0  0  0  0
    2.2983  -10.1279   12.4176 C   0  0  0  0  0  0  0  0  0  0  0  0
    1.7058   -8.9322   12.8530 C   0  0  0  0  0  0  0  0  0  0  0  0
   -0.2543  -11.3946   10.0009 C   0  0  0  0  0  0  0  0  0  0  0  0
    0.5269  -12.3507    9.2679 C   0  0  0  0  0  0  0  0  0  0  0  0
    1.6700  -12.8808    9.9245 C   0  0  0  0  0  0  0  0  0  0  0  0
    2.2113  -12.2369   11.0785 C   0  0  0  0  0  0  0  0  0  0  0  0
    0.2553  -12.8128    7.9343 C   0  0  0  0  0  0  0  0  0  0  0  0
    0.8844  -13.9839    7.3845 C   0  0  0  0  0  0  0  0  0  0  0  0
    1.7924  -14.6517    8.2374 C   0  0  0  0  0  0  0  0  0  0  0  0
    2.2643  -14.0744    9.4306 C   0  0  0  0  0  0  0  0  0  0  0  0
   -0.6223  -12.0969    7.0910 C   0  0  0  0  0  0  0  0  0  0  0  0
   -1.1344  -12.6777    5.9354 C   0  0  0  0  0  0  0  0  0  0  0  0
   -0.6214  -13.9007    5.4774 C   0  0  0  0  0  0  0  0  0  0  0  0
    0.5437  -14.4701    6.0654 C   0  0  0  0  0  0  0  0  0  0  0  0
   -1.2866  -14.5286    4.4147 C   0  0  0  0  0  0  0  0  0  0  0  0
   -0.7526  -15.6563    3.7822 C   0  0  0  0  0  0  0  0  0  0  0  0
    0.5110  -16.1420    4.2223 C   0  0  0  0  0  0  0  0  0  0  0  0
    1.2168  -15.4778    5.2798 C   0  0  0  0  0  0  0  0  0  0  0  0
   -1.4423  -16.2678    2.7015 C   0  0  0  0  0  0  0  0  0  0  0  0
   -0.9256  -17.4481    2.1486 C   0  0  0  0  0  0  0  0  0  0  0  0
    0.3202  -17.9534    2.5616 C   0  0  0  0  0  0  0  0  0  0  0  0
    1.0661  -17.2762    3.5601 C   0  0  0  0  0  0  0  0  0  0  0  0
    0.8318  -19.1169    1.9625 C   0  0  0  0  0  0  0  0  0  0  0  0
    2.1177  -19.6120    2.2795 C   0  0  0  0  0  0  0  0  0  0  0  0
    2.9097  -18.8915    3.2269 C   0  0  0  0  0  0  0  0  0  0  0  0
    2.3726  -17.7307    3.8752 C   0  0  0  0  0  0  0  0  0  0  0  0
    3.1486  -16.9758    4.8004 C   0  0  0  0  0  0  0  0  0  0  0  0
    4.4715  -17.4002    5.0772 C   0  0  0  0  0  0  0  0  0  0  0  0
    5.0092  -18.5343    4.4548 C   0  0  0  0  0  0  0  0  0  0  0  0
    4.2434  -19.2643    3.5351 C   0  0  0  0  0  0  0  0  0  0  0  0
   -2.1397  -15.4116   -0.2188 C   0  0  0  0  0  0  0  0  0  0  0  0
   -1.8555  -14.5229   -1.2791 C   0  0  0  0  0  0  0  0  0  0  0  0
   -1.7889  -13.1227   -1.0582 C   0  0  0  0  0  0  0  0  0  0  0  0
   -2.0354  -12.6649    0.2545 C   0  0  0  0  0  0  0  0  0  0  0  0
   -2.3582  -13.5400    1.2984 C   0  0  0  0  0  0  0  0  0  0  0  0
   -2.3661  -14.9311    1.0921 C   0  0  0  0  0  0  0  0  0  0  0  0
   -1.4850  -12.1496   -2.0529 C   0  0  0  0  0  0  0  0  0  0  0  0
   -1.3836  -10.7509   -1.7546 C   0  0  0  0  0  0  0  0  0  0  0  0
   -1.2895  -12.5882   -3.2087 O   0  0  0  0  0  0  0  0  0  0  0  0
   -1.0681   -9.6698   -2.6521 C   0  0  0  0  0  0  0  0  0  0  0  0
   -0.9203   -8.3398   -2.1302 C   0  0  0  0  0  0  0  0  0  0  0  0
   -1.1215   -8.0700   -0.7469 C   0  0  0  0  0  0  0  0  0  0  0  0
   -1.4892   -9.1206    0.1037 C   0  0  0  0  0  0  0  0  0  0  0  0
   -1.6110  -10.4177   -0.3908 C   0  0  0  0  0  0  0  0  0  0  0  0
   -1.9397  -11.3488    0.5373 O   0  0  0  0  0  0  0  0  0  0  0  0
   -0.5764   -7.2530   -2.9834 C   0  0  0  0  0  0  0  0  0  0  0  0
   -0.3911   -7.4479   -4.3672 C   0  0  0  0  0  0  0  0  0  0  0  0
   -0.5456   -8.7441   -4.8918 C   0  0  0  0  0  0  0  0  0  0  0  0
   -0.8851   -9.8199   -4.0544 C   0  0  0  0  0  0  0  0  0  0  0  0
   -0.4369   -5.9480   -2.4677 C   0  0  0  0  0  0  0  0  0  0  0  0
   -0.1197   -4.8383   -3.2951 C   0  0  0  0  0  0  0  0  0  0  0  0
    0.1026   -5.0258   -4.6952 C   0  0  0  0  0  0  0  0  0  0  0  0
   -0.0777   -6.3476   -5.1950 C   0  0  0  0  0  0  0  0  0  0  0  0
   -0.6319   -5.6935   -1.0659 C   0  0  0  0  0  0  0  0  0  0  0  0
   -0.9612   -6.7663   -0.2223 C   0  0  0  0  0  0  0  0  0  0  0  0
   -0.0480   -3.5415   -2.7119 C   0  0  0  0  0  0  0  0  0  0  0  0
    0.2144   -2.4118   -3.5179 C   0  0  0  0  0  0  0  0  0  0  0  0
    0.4365   -2.6050   -4.9015 C   0  0  0  0  0  0  0  0  0  0  0  0
    0.4459   -3.8926   -5.5107 C   0  0  0  0  0  0  0  0  0  0  0  0
    0.2590   -1.1304   -2.9088 C   0  0  0  0  0  0  0  0  0  0  0  0
    0.0574   -0.9380   -1.5164 C   0  0  0  0  0  0  0  0  0  0  0  0
   -0.1944   -2.0898   -0.7320 C   0  0  0  0  0  0  0  0  0  0  0  0
   -0.2547   -3.3660   -1.3146 C   0  0  0  0  0  0  0  0  0  0  0  0
    3.2892  -12.8690   11.7545 C   0  0  0  0  0  0  0  0  0  0  0  0
    3.8327  -14.0788   11.2977 C   0  0  0  0  0  0  0  0  0  0  0  0
    3.3264  -14.6786   10.1368 C   0  0  0  0  0  0  0  0  0  0  0  0
   -1.6541  -11.2148    9.8370 C   0  0  0  0  0  0  0  0  0  0  0  0
   -2.3331  -12.1250    9.3025 O   0  0  0  0  0  0  0  0  0  0  0  0
    2.5940  -15.8183    5.4076 C   0  0  0  0  0  0  0  0  0  0  0  0
    3.3810  -15.0322    5.9893 O   0  0  0  0  0  0  0  0  0  0  0  0
   -0.5318   -4.4266   -0.5055 O   0  0  0  0  0  0  0  0  0  0  0  0
    0.9433   -2.7576   -7.7099 C   0  0  0  0  0  0  0  0  0  0  0  0
    1.1276   -2.7053   -9.1377 C   0  0  0  0  0  0  0  0  0  0  0  0
    1.3846   -1.4387   -9.7594 C   0  0  0  0  0  0  0  0  0  0  0  0
    1.3937   -0.2542   -8.9953 C   0  0  0  0  0  0  0  0  0  0  0  0
    1.1326   -0.2992   -7.6241 C   0  0  0  0  0  0  0  0  0  0  0  0
    0.9048   -1.5310   -6.9986 C   0  0  0  0  0  0  0  0  0  0  0  0
    1.6254   -1.3438  -11.1498 C   0  0  0  0  0  0  0  0  0  0  0  0
    1.6042   -2.4882  -11.9582 C   0  0  0  0  0  0  0  0  0  0  0  0
    1.3025   -3.7308  -11.3883 C   0  0  0  0  0  0  0  0  0  0  0  0
    1.0475   -3.8307  -10.0086 C   0  0  0  0  0  0  0  0  0  0  0  0
    0.6712   -1.5051   -5.6641 O   0  0  0  0  0  0  0  0  0  0  0  0
   -2.6096  -15.7728    2.1570 O   0  0  0  0  0  0  0  0  0  0  0  0
    0.8232   -3.9223   -6.8935 C   0  0  0  0  0  0  0  0  0  0  0  0
    1.1650   -5.0117   -7.3998 O   0  0  0  0  0  0  0  0  0  0  0  0
    2.3542   -8.2110   13.6493 O   0  0  0  0  0  0  0  0  0  0  0  0
    0.1187    0.3655   -0.9940 C   0  0  0  0  0  0  0  0  0  0  0  0
   -0.0348    0.7427    0.2846 C   0  0  0  0  0  0  0  0  0  0  0  0
    2.5492  -20.7948    1.6650 C   0  0  0  0  0  0  0  0  0  0  0  0
    2.3435  -21.1199    0.3794 C   0  0  0  0  0  0  0  0  0  0  0  0
   -4.2704   -6.4412   11.4980 C   0  0  0  0  0  0  0  0  0  0  0  0
   -5.2380   -5.8323   10.7930 C   0  0  0  0  0  0  0  0  0  0  0  0
   -1.1290   -6.5193    1.1043 O   0  0  0  0  0  0  0  0  0  0  0  0
   -5.2591   -8.4858   10.1294 H   0  0  0  0  0  0  0  0  0  0  0  0
   -4.2110  -10.4694    9.4515 H   0  0  0  0  0  0  0  0  0  0  0  0
   -1.8860   -6.1876   12.7735 H   0  0  0  0  0  0  0  0  0  0  0  0
    0.2874   -6.7300   13.4494 H   0  0  0  0  0  0  0  0  0  0  0  0
    3.2339  -10.3364   12.7660 H   0  0  0  0  0  0  0  0  0  0  0  0
    2.1351  -15.5801    7.9930 H   0  0  0  0  0  0  0  0  0  0  0  0
   -0.9398  -11.1538    7.3228 H   0  0  0  0  0  0  0  0  0  0  0  0
   -1.8809  -12.1954    5.4284 H   0  0  0  0  0  0  0  0  0  0  0  0
   -2.1893  -14.1671    4.1172 H   0  0  0  0  0  0  0  0  0  0  0  0
   -1.4607  -17.9250    1.4167 H   0  0  0  0  0  0  0  0  0  0  0  0
    0.2453  -19.6070    1.2779 H   0  0  0  0  0  0  0  0  0  0  0  0
    5.0622  -16.8904    5.7413 H   0  0  0  0  0  0  0  0  0  0  0  0
    5.9650  -18.8270    4.6708 H   0  0  0  0  0  0  0  0  0  0  0  0
    4.6890  -20.0661    3.0838 H   0  0  0  0  0  0  0  0  0  0  0  0
   -2.1778  -16.4149   -0.4086 H   0  0  0  0  0  0  0  0  0  0  0  0
   -1.6880  -14.9135   -2.2107 H   0  0  0  0  0  0  0  0  0  0  0  0
   -2.5792  -13.1450    2.2081 H   0  0  0  0  0  0  0  0  0  0  0  0
   -1.6596   -8.9589    1.1012 H   0  0  0  0  0  0  0  0  0  0  0  0
   -0.4145   -8.9155   -5.8943 H   0  0  0  0  0  0  0  0  0  0  0  0
   -1.0000  -10.7127   -4.5212 H   0  0  0  0  0  0  0  0  0  0  0  0
   -0.0156   -6.5412   -6.1889 H   0  0  0  0  0  0  0  0  0  0  0  0
    0.4513   -0.3128   -3.4954 H   0  0  0  0  0  0  0  0  0  0  0  0
   -0.3411   -2.0228    0.2769 H   0  0  0  0  0  0  0  0  0  0  0  0
    3.6873  -12.4794   12.6103 H   0  0  0  0  0  0  0  0  0  0  0  0
    4.6017  -14.5156   11.8134 H   0  0  0  0  0  0  0  0  0  0  0  0
    3.7480  -15.5512    9.8069 H   0  0  0  0  0  0  0  0  0  0  0  0
    1.5820    0.6537   -9.4311 H   0  0  0  0  0  0  0  0  0  0  0  0
    1.1185    0.5677   -7.0820 H   0  0  0  0  0  0  0  0  0  0  0  0
    1.8145   -0.4392  -11.5895 H   0  0  0  0  0  0  0  0  0  0  0  0
    1.7981   -2.4145  -12.9604 H   0  0  0  0  0  0  0  0  0  0  0  0
    1.2624   -4.5642  -11.9809 H   0  0  0  0  0  0  0  0  0  0  0  0
    0.7860   -4.7548   -9.6760 H   0  0  0  0  0  0  0  0  0  0  0  0
    0.2915    1.1111   -1.6319 H   0  0  0  0  0  0  0  0  0  0  0  0
    0.0263    1.7046    0.5265 H   0  0  0  0  0  0  0  0  0  0  0  0
   -0.2120    0.0975    1.0135 H   0  0  0  0  0  0  0  0  0  0  0  0
    3.0467  -21.4530    2.2195 H   0  0  0  0  0  0  0  0  0  0  0  0
    2.6620  -21.9915    0.0274 H   0  0  0  0  0  0  0  0  0  0  0  0
    1.8753  -20.5072   -0.2462 H   0  0  0  0  0  0  0  0  0  0  0  0
   -4.0227   -5.9885   12.3433 H   0  0  0  0  0  0  0  0  0  0  0  0
   -5.6561   -5.0014   11.1411 H   0  0  0  0  0  0  0  0  0  0  0  0
   -5.5555   -6.1764    9.9185 H   0  0  0  0  0  0  0  0  0  0  0  0
   -0.2775   -6.1316    1.3957 H   0  0  0  0  0  0  0  0  0  0  0  0
 45 49  1  0  0  0  0
 49 50  1  0  0  0  0
 49 51  2  0  0  0  0
 46 57  1  0  0  0  0
 56 57  1  0  0  0  0
 68 75  1  0  0  0  0
 74 75  2  0  0  0  0
 73 74  1  0  0  0  0
 72 73  2  0  0  0  0
 69 72  1  0  0  0  0
 64 71  1  0  0  0  0
 70 71  2  0  0  0  0
 69 70  1  0  0  0  0
 68 69  2  0  0  0  0
 63 68  1  0  0  0  0
 67 54  1  0  0  0  0
 66 67  2  0  0  0  0
 62 66  1  0  0  0  0
 59 65  1  0  0  0  0
 64 65  2  0  0  0  0
 63 64  1  0  0  0  0
 62 63  2  0  0  0  0
 58 62  1  0  0  0  0
 52 61  1  0  0  0  0
 60 61  2  0  0  0  0
 59 60  1  0  0  0  0
 58 59  2  0  0  0  0
 53 58  1  0  0  0  0
 54 55  1  0  0  0  0
 53 54  2  0  0  0  0
 52 53  1  0  0  0  0
 55 56  2  0  0  0  0
 50 56  1  0  0  0  0
 50 52  2  0  0  0  0
 43 48  2  0  0  0  0
 47 48  1  0  0  0  0
 46 47  2  0  0  0  0
 45 46  1  0  0  0  0
 44 45  2  0  0  0  0
 43 44  1  0  0  0  0
 20 26  1  0  0  0  0
 23 24  2  0  0  0  0
 19 23  1  0  0  0  0
 17 22  1  0  0  0  0
 21 22  2  0  0  0  0
 20 21  1  0  0  0  0
 19 20  2  0  0  0  0
 16 19  1  0  0  0  0
 12 18  1  0  0  0  0
 17 18  1  0  0  0  0
 16 17  2  0  0  0  0
 15 16  1  0  0  0  0
 11 15  2  0  0  0  0
  9 14  1  0  0  0  0
 13 14  1  0  0  0  0
 12 13  2  0  0  0  0
 11 12  1  0  0  0  0
 10 11  1  0  0  0  0
  6 10  2  0  0  0  0
  9 10  1  0  0  0  0
  8  9  2  0  0  0  0
  7  8  1  0  0  0  0
  1  7  2  0  0  0  0
  1  6  1  0  0  0  0
  5  6  1  0  0  0  0
  4  5  2  0  0  0  0
  3  4  1  0  0  0  0
  2  3  2  0  0  0  0
  1  2  1  0  0  0  0
 37 42  1  0  0  0  0
 41 42  2  0  0  0  0
 40 41  1  0  0  0  0
 39 40  2  0  0  0  0
 38 39  1  0  0  0  0
 34 38  1  0  0  0  0
 37 38  2  0  0  0  0
 36 37  1  0  0  0  0
 35 36  2  0  0  0  0
 33 35  1  0  0  0  0
 29 34  1  0  0  0  0
 33 34  2  0  0  0  0
 32 33  1  0  0  0  0
 31 32  2  0  0  0  0
 28 31  1  0  0  0  0
 26 30  1  0  0  0  0
 29 30  2  0  0  0  0
 28 29  1  0  0  0  0
 27 28  2  0  0  0  0
 25 27  1  0  0  0  0
 25 26  2  0  0  0  0
 24 25  1  0  0  0  0
 22 78  1  0  0  0  0
 77 78  2  0  0  0  0
 76 77  1  0  0  0  0
 18 76  2  0  0  0  0
 15 79  1  0  0  0  0
  5 79  1  0  0  0  0
 79 80  2  0  0  0  0
 30 81  1  0  0  0  0
 39 81  1  0  0  0  0
 81 82  2  0  0  0  0
 66 83  1  0  0  0  0
 75 83  1  0  0  0  0
 85 86  1  0  0  0  0
 86 87  1  0  0  0  0
 87 88  2  0  0  0  0
 88 89  1  0  0  0  0
 84 85  1  0  0  0  0
 84 89  2  0  0  0  0
 90 91  1  0  0  0  0
 91 92  2  0  0  0  0
 92 93  1  0  0  0  0
 85 93  2  0  0  0  0
 86 90  2  0  0  0  0
 89 94  1  0  0  0  0
 94 70  1  0  0  0  0
 31 95  1  0  0  0  0
 95 48  1  0  0  0  0
 84 96  1  0  0  0  0
 71 96  1  0  0  0  0
 96 97  2  0  0  0  0
 14 98  2  0  0  0  0
 73 99  1  0  0  0  0
 99100  2  0  0  0  0
 36101  1  0  0  0  0
101102  2  0  0  0  0
  2103  1  0  0  0  0
103104  2  0  0  0  0
 67105  1  0  0  0  0
  3106  1  0  0  0  0
  4107  1  0  0  0  0
  7108  1  0  0  0  0
  8109  1  0  0  0  0
 13110  1  0  0  0  0
 21111  1  0  0  0  0
 23112  1  0  0  0  0
 24113  1  0  0  0  0
 27114  1  0  0  0  0
 32115  1  0  0  0  0
 35116  1  0  0  0  0
 40117  1  0  0  0  0
 41118  1  0  0  0  0
 42119  1  0  0  0  0
 43120  1  0  0  0  0
 44121  1  0  0  0  0
 47122  1  0  0  0  0
 55123  1  0  0  0  0
 60124  1  0  0  0  0
 61125  1  0  0  0  0
 65126  1  0  0  0  0
 72127  1  0  0  0  0
 74128  1  0  0  0  0
 76129  1  0  0  0  0
 77130  1  0  0  0  0
 78131  1  0  0  0  0
 87132  1  0  0  0  0
 88133  1  0  0  0  0
 90134  1  0  0  0  0
 91135  1  0  0  0  0
 92136  1  0  0  0  0
 93137  1  0  0  0  0
 99138  1  0  0  0  0
100139  1  0  0  0  0
100140  1  0  0  0  0
101141  1  0  0  0  0
102142  1  0  0  0  0
102143  1  0  0  0  0
103144  1  0  0  0  0
104145  1  0  0  0  0
104146  1  0  0  0  0
105147  1  0  0  0  0
M  END
