
  Mrv2101 10312211323D          

200237  0  0  0  0            999 V2000
   -4.2891  -14.1346   10.8233 C   0  0  0  0  0  0  0  0  0  0  0  0
   -2.8693  -14.3517   10.9399 C   0  0  0  0  0  0  0  0  0  0  0  0
   -2.1908  -14.8023    9.7768 C   0  0  0  0  0  0  0  0  0  0  0  0
   -2.8483  -15.0049    8.5597 C   0  0  0  0  0  0  0  0  0  0  0  0
   -4.2198  -14.7283    8.4392 C   0  0  0  0  0  0  0  0  0  0  0  0
   -4.9524  -14.2867    9.5603 C   0  0  0  0  0  0  0  0  0  0  0  0
   -5.1193  -13.7811   11.9164 C   0  0  0  0  0  0  0  0  0  0  0  0
   -6.5046  -13.6338   11.7802 C   0  0  0  0  0  0  0  0  0  0  0  0
   -7.1412  -13.7932   10.5290 C   0  0  0  0  0  0  0  0  0  0  0  0
   -6.3528  -14.0555    9.3898 C   0  0  0  0  0  0  0  0  0  0  0  0
   -6.9740  -14.1163    8.1046 C   0  0  0  0  0  0  0  0  0  0  0  0
   -8.3799  -13.9095    7.9629 C   0  0  0  0  0  0  0  0  0  0  0  0
   -9.1909  -13.6946    9.1207 C   0  0  0  0  0  0  0  0  0  0  0  0
   -8.5444  -13.7338   10.3963 C   0  0  0  0  0  0  0  0  0  0  0  0
   -6.1813  -14.4163    6.9643 C   0  0  0  0  0  0  0  0  0  0  0  0
   -6.7347  -14.3123    5.6514 C   0  0  0  0  0  0  0  0  0  0  0  0
   -8.1486  -14.1573    5.5124 C   0  0  0  0  0  0  0  0  0  0  0  0
   -8.9697  -13.9647    6.6639 C   0  0  0  0  0  0  0  0  0  0  0  0
   -5.9465  -14.3992    4.4588 C   0  0  0  0  0  0  0  0  0  0  0  0
   -6.5298  -14.8448    3.2532 C   0  0  0  0  0  0  0  0  0  0  0  0
   -7.8956  -14.5270    3.1195 C   0  0  0  0  0  0  0  0  0  0  0  0
   -8.7396  -14.1986    4.2143 C   0  0  0  0  0  0  0  0  0  0  0  0
   -4.5919  -14.0257    4.3704 C   0  0  0  0  0  0  0  0  0  0  0  0
   -3.7751  -14.4783    3.3222 C   0  0  0  0  0  0  0  0  0  0  0  0
   -4.3249  -15.2804    2.2766 C   0  0  0  0  0  0  0  0  0  0  0  0
   -5.7317  -15.5055    2.2505 C   0  0  0  0  0  0  0  0  0  0  0  0
   -3.4643  -15.8511    1.2862 C   0  0  0  0  0  0  0  0  0  0  0  0
   -4.0307  -16.5304    0.1518 C   0  0  0  0  0  0  0  0  0  0  0  0
   -5.4332  -16.8326    0.1574 C   0  0  0  0  0  0  0  0  0  0  0  0
   -6.2402  -16.4100    1.2593 C   0  0  0  0  0  0  0  0  0  0  0  0
   -3.2668  -16.9444   -0.9861 C   0  0  0  0  0  0  0  0  0  0  0  0
   -3.8299  -17.8120   -1.9578 C   0  0  0  0  0  0  0  0  0  0  0  0
   -5.2255  -18.0994   -1.9546 C   0  0  0  0  0  0  0  0  0  0  0  0
   -6.0322  -17.6028   -0.9031 C   0  0  0  0  0  0  0  0  0  0  0  0
   -5.8034  -18.8877   -2.9955 C   0  0  0  0  0  0  0  0  0  0  0  0
   -7.2223  -19.0421   -3.0706 C   0  0  0  0  0  0  0  0  0  0  0  0
   -8.0735  -18.6352   -1.9850 C   0  0  0  0  0  0  0  0  0  0  0  0
   -7.4282  -17.9202   -0.9111 C   0  0  0  0  0  0  0  0  0  0  0  0
   -8.1777  -17.5242    0.2221 C   0  0  0  0  0  0  0  0  0  0  0  0
   -9.5754  -17.6627    0.2304 C   0  0  0  0  0  0  0  0  0  0  0  0
  -10.2460  -18.3119   -0.8104 C   0  0  0  0  0  0  0  0  0  0  0  0
   -9.5008  -18.8935   -1.8843 C   0  0  0  0  0  0  0  0  0  0  0  0
   -0.7467  -15.5973   -2.9617 C   0  0  0  0  0  0  0  0  0  0  0  0
   -0.2512  -14.4661   -3.6368 C   0  0  0  0  0  0  0  0  0  0  0  0
   -0.5935  -13.1630   -3.2051 C   0  0  0  0  0  0  0  0  0  0  0  0
   -1.4021  -13.0284   -2.0522 C   0  0  0  0  0  0  0  0  0  0  0  0
   -1.9258  -14.1614   -1.4016 C   0  0  0  0  0  0  0  0  0  0  0  0
   -1.5970  -15.4637   -1.8426 C   0  0  0  0  0  0  0  0  0  0  0  0
   -0.1690  -11.9780   -3.8581 C   0  0  0  0  0  0  0  0  0  0  0  0
   -0.6243  -10.6884   -3.4546 C   0  0  0  0  0  0  0  0  0  0  0  0
    0.6666  -12.0805   -4.7883 O   0  0  0  0  0  0  0  0  0  0  0  0
   -0.5012   -9.4630   -4.1949 C   0  0  0  0  0  0  0  0  0  0  0  0
   -0.5281   -8.2304   -3.4709 C   0  0  0  0  0  0  0  0  0  0  0  0
   -0.9663   -8.2136   -2.1145 C   0  0  0  0  0  0  0  0  0  0  0  0
   -1.3884   -9.4161   -1.5100 C   0  0  0  0  0  0  0  0  0  0  0  0
   -1.2230  -10.6382   -2.1712 C   0  0  0  0  0  0  0  0  0  0  0  0
   -1.6297  -11.7829   -1.5480 O   0  0  0  0  0  0  0  0  0  0  0  0
   -0.1671   -7.0022   -4.1008 C   0  0  0  0  0  0  0  0  0  0  0  0
    0.1335   -6.9583   -5.4823 C   0  0  0  0  0  0  0  0  0  0  0  0
   -0.0525   -8.1490   -6.2450 C   0  0  0  0  0  0  0  0  0  0  0  0
   -0.4367   -9.3745   -5.6188 C   0  0  0  0  0  0  0  0  0  0  0  0
   -0.1784   -5.7916   -3.3665 C   0  0  0  0  0  0  0  0  0  0  0  0
    0.1906   -4.5588   -3.9718 C   0  0  0  0  0  0  0  0  0  0  0  0
    0.6475   -4.5163   -5.3240 C   0  0  0  0  0  0  0  0  0  0  0  0
    0.4960   -5.7171   -6.1023 C   0  0  0  0  0  0  0  0  0  0  0  0
   -0.6085   -5.8004   -2.0180 C   0  0  0  0  0  0  0  0  0  0  0  0
   -1.0144   -6.9957   -1.3981 C   0  0  0  0  0  0  0  0  0  0  0  0
    0.0631   -3.3570   -3.2211 C   0  0  0  0  0  0  0  0  0  0  0  0
    0.3036   -2.0942   -3.8118 C   0  0  0  0  0  0  0  0  0  0  0  0
    0.7531   -2.0574   -5.1470 C   0  0  0  0  0  0  0  0  0  0  0  0
    1.1169   -3.2485   -5.8200 C   0  0  0  0  0  0  0  0  0  0  0  0
    0.1275   -0.9214   -3.0367 C   0  0  0  0  0  0  0  0  0  0  0  0
   -0.2331   -0.9759   -1.6647 C   0  0  0  0  0  0  0  0  0  0  0  0
   -0.4879   -2.2522   -1.1034 C   0  0  0  0  0  0  0  0  0  0  0  0
   -0.3569   -3.4198   -1.8731 C   0  0  0  0  0  0  0  0  0  0  0  0
  -10.3829  -13.8453    6.5164 C   0  0  0  0  0  0  0  0  0  0  0  0
  -10.9711  -13.8830    5.2197 C   0  0  0  0  0  0  0  0  0  0  0  0
  -10.1434  -13.9945    4.0606 C   0  0  0  0  0  0  0  0  0  0  0  0
   -4.8643  -14.8838    7.2028 C   0  0  0  0  0  0  0  0  0  0  0  0
   -7.5318  -16.9851    1.3500 C   0  0  0  0  0  0  0  0  0  0  0  0
   -0.6671   -4.6266   -1.3262 O   0  0  0  0  0  0  0  0  0  0  0  0
    1.9245   -1.8442   -7.7234 C   0  0  0  0  0  0  0  0  0  0  0  0
    2.4256   -1.6856   -9.0581 C   0  0  0  0  0  0  0  0  0  0  0  0
    2.2678   -0.4287   -9.7323 C   0  0  0  0  0  0  0  0  0  0  0  0
    1.6153    0.6560   -9.0811 C   0  0  0  0  0  0  0  0  0  0  0  0
    1.1467    0.5079   -7.7478 C   0  0  0  0  0  0  0  0  0  0  0  0
    1.3031   -0.7336   -7.0928 C   0  0  0  0  0  0  0  0  0  0  0  0
    2.7364   -0.2490  -11.0713 C   0  0  0  0  0  0  0  0  0  0  0  0
    3.3898   -1.3211  -11.7228 C   0  0  0  0  0  0  0  0  0  0  0  0
    3.5263   -2.5591  -11.0920 C   0  0  0  0  0  0  0  0  0  0  0  0
    3.0337   -2.7388   -9.7954 C   0  0  0  0  0  0  0  0  0  0  0  0
    0.8375   -0.8731   -5.8167 O   0  0  0  0  0  0  0  0  0  0  0  0
   -1.9390  -16.6089   -1.1545 O   0  0  0  0  0  0  0  0  0  0  0  0
    1.9581   -3.0407   -6.9449 C   0  0  0  0  0  0  0  0  0  0  0  0
    2.7759   -3.9579   -7.1864 O   0  0  0  0  0  0  0  0  0  0  0  0
   -9.2207  -13.8247   11.5705 O   0  0  0  0  0  0  0  0  0  0  0  0
   -0.3193    0.2158   -0.9315 C   0  0  0  0  0  0  0  0  0  0  0  0
   -0.3248    0.3310    0.4052 C   0  0  0  0  0  0  0  0  0  0  0  0
   -7.7175  -19.5476   -4.2700 C   0  0  0  0  0  0  0  0  0  0  0  0
   -8.2473  -18.7757   -5.2275 C   0  0  0  0  0  0  0  0  0  0  0  0
   -2.1472  -14.1405   12.1428 C   0  0  0  0  0  0  0  0  0  0  0  0
   -0.8352  -14.3105   12.3792 C   0  0  0  0  0  0  0  0  0  0  0  0
   -1.4690   -6.9609   -0.1152 O   0  0  0  0  0  0  0  0  0  0  0  0
  -11.2092  -13.6646    7.6621 C   0  0  0  0  0  0  0  0  0  0  0  0
  -10.6003  -13.4999    8.9498 C   0  0  0  0  0  0  0  0  0  0  0  0
  -12.3916  -13.8089    5.0813 C   0  0  0  0  0  0  0  0  0  0  0  0
  -13.2378  -13.7288    6.2254 C   0  0  0  0  0  0  0  0  0  0  0  0
  -12.6380  -13.6315    7.5152 C   0  0  0  0  0  0  0  0  0  0  0  0
  -10.7694  -13.9160    2.7873 C   0  0  0  0  0  0  0  0  0  0  0  0
  -12.1549  -13.8456    2.6442 C   0  0  0  0  0  0  0  0  0  0  0  0
  -12.9747  -13.8152    3.7793 C   0  0  0  0  0  0  0  0  0  0  0  0
  -10.2805  -19.7233   -2.7492 C   0  0  0  0  0  0  0  0  0  0  0  0
  -11.6805  -19.8397   -2.6572 C   0  0  0  0  0  0  0  0  0  0  0  0
  -12.3768  -19.1619   -1.6528 C   0  0  0  0  0  0  0  0  0  0  0  0
  -11.6574  -18.4109   -0.7185 C   0  0  0  0  0  0  0  0  0  0  0  0
   -3.0069  -18.4371   -2.9278 C   0  0  0  0  0  0  0  0  0  0  0  0
   -3.5441  -19.2835   -3.8989 C   0  0  0  0  0  0  0  0  0  0  0  0
   -4.9231  -19.4940   -3.9371 C   0  0  0  0  0  0  0  0  0  0  0  0
   -2.0638  -15.7184    1.5232 C   0  0  0  0  0  0  0  0  0  0  0  0
   -1.5376  -14.8532    2.4917 C   0  0  0  0  0  0  0  0  0  0  0  0
   -2.3969  -14.2004    3.3740 C   0  0  0  0  0  0  0  0  0  0  0  0
  -13.4249  -13.4677    8.6848 C   0  0  0  0  0  0  0  0  0  0  0  0
  -12.8432  -13.1691    9.9128 C   0  0  0  0  0  0  0  0  0  0  0  0
  -11.4557  -13.1172   10.0179 C   0  0  0  0  0  0  0  0  0  0  0  0
    1.4074    1.8884   -9.7670 C   0  0  0  0  0  0  0  0  0  0  0  0
    1.8576    2.0485  -11.1074 C   0  0  0  0  0  0  0  0  0  0  0  0
    2.5357    0.9824  -11.7425 C   0  0  0  0  0  0  0  0  0  0  0  0
    0.7335    2.9631   -9.1174 C   0  0  0  0  0  0  0  0  0  0  0  0
    0.2917    2.8080   -7.7901 C   0  0  0  0  0  0  0  0  0  0  0  0
    0.4986    1.5966   -7.1145 C   0  0  0  0  0  0  0  0  0  0  0  0
    0.5032    4.1726   -9.8080 C   0  0  0  0  0  0  0  0  0  0  0  0
    0.9344    4.3219  -11.1341 C   0  0  0  0  0  0  0  0  0  0  0  0
    1.6067    3.2714  -11.7775 C   0  0  0  0  0  0  0  0  0  0  0  0
    0.5590   -5.7235   -7.5196 C   0  0  0  0  0  0  0  0  0  0  0  0
    0.4077   -6.8826   -8.2818 C   0  0  0  0  0  0  0  0  0  0  0  0
    0.0772   -8.0929   -7.6602 C   0  0  0  0  0  0  0  0  0  0  0  0
   -0.1952   -9.2264   -8.4506 C   0  0  0  0  0  0  0  0  0  0  0  0
   -0.6894  -10.3891   -7.8524 C   0  0  0  0  0  0  0  0  0  0  0  0
   -0.8541  -10.4378   -6.4639 C   0  0  0  0  0  0  0  0  0  0  0  0
  -14.3726  -13.7846    3.6082 C   0  0  0  0  0  0  0  0  0  0  0  0
  -15.2072  -13.7470    4.7257 C   0  0  0  0  0  0  0  0  0  0  0  0
  -14.6481  -13.7217    6.0094 C   0  0  0  0  0  0  0  0  0  0  0  0
    2.9531    1.1277  -12.9186 O   0  0  0  0  0  0  0  0  0  0  0  0
   -8.1098  -17.1106    2.4577 O   0  0  0  0  0  0  0  0  0  0  0  0
   -1.1908  -14.9969    9.7779 H   0  0  0  0  0  0  0  0  0  0  0  0
   -2.3087  -15.3381    7.7556 H   0  0  0  0  0  0  0  0  0  0  0  0
   -4.7522  -13.6397   12.8547 H   0  0  0  0  0  0  0  0  0  0  0  0
   -7.0427  -13.4007   12.6190 H   0  0  0  0  0  0  0  0  0  0  0  0
   -8.2656  -14.5764    2.1761 H   0  0  0  0  0  0  0  0  0  0  0  0
   -4.1860  -13.4425    5.1063 H   0  0  0  0  0  0  0  0  0  0  0  0
  -10.1180  -17.2826    1.0142 H   0  0  0  0  0  0  0  0  0  0  0  0
   -0.4660  -16.5244   -3.2861 H   0  0  0  0  0  0  0  0  0  0  0  0
    0.3655  -14.6048   -4.4415 H   0  0  0  0  0  0  0  0  0  0  0  0
   -2.5253  -14.0246   -0.5918 H   0  0  0  0  0  0  0  0  0  0  0  0
   -1.7876   -9.4224   -0.5673 H   0  0  0  0  0  0  0  0  0  0  0  0
    0.3013   -0.0098   -3.4714 H   0  0  0  0  0  0  0  0  0  0  0  0
   -0.7947   -2.3528   -0.1337 H   0  0  0  0  0  0  0  0  0  0  0  0
   -4.3424  -15.3560    6.4653 H   0  0  0  0  0  0  0  0  0  0  0  0
    3.7678   -1.2236  -12.6693 H   0  0  0  0  0  0  0  0  0  0  0  0
    3.9795   -3.3375  -11.5791 H   0  0  0  0  0  0  0  0  0  0  0  0
    3.1316   -3.6789   -9.4296 H   0  0  0  0  0  0  0  0  0  0  0  0
   -9.8060  -14.6018   11.4568 H   0  0  0  0  0  0  0  0  0  0  0  0
   -0.3611    1.0711   -1.4397 H   0  0  0  0  0  0  0  0  0  0  0  0
   -0.3886    1.2294    0.8236 H   0  0  0  0  0  0  0  0  0  0  0  0
   -0.2539   -0.4549    1.0049 H   0  0  0  0  0  0  0  0  0  0  0  0
   -7.6512  -20.5280   -4.4303 H   0  0  0  0  0  0  0  0  0  0  0  0
   -8.5795  -19.1888   -6.0681 H   0  0  0  0  0  0  0  0  0  0  0  0
   -8.3127  -17.7903   -5.1203 H   0  0  0  0  0  0  0  0  0  0  0  0
   -2.6371  -13.8197   12.9384 H   0  0  0  0  0  0  0  0  0  0  0  0
   -0.4668  -14.1211   13.2831 H   0  0  0  0  0  0  0  0  0  0  0  0
   -0.1987  -14.6214   11.6905 H   0  0  0  0  0  0  0  0  0  0  0  0
   -1.6227   -6.0168    0.0920 H   0  0  0  0  0  0  0  0  0  0  0  0
  -10.2430  -13.9021    1.9174 H   0  0  0  0  0  0  0  0  0  0  0  0
  -12.5568  -13.8199    1.7020 H   0  0  0  0  0  0  0  0  0  0  0  0
   -9.8666  -20.3064   -3.4626 H   0  0  0  0  0  0  0  0  0  0  0  0
  -12.1951  -20.4268   -3.3193 H   0  0  0  0  0  0  0  0  0  0  0  0
  -13.3957  -19.2348   -1.5865 H   0  0  0  0  0  0  0  0  0  0  0  0
  -12.1778  -17.9489    0.0337 H   0  0  0  0  0  0  0  0  0  0  0  0
   -1.9943  -18.3148   -2.9317 H   0  0  0  0  0  0  0  0  0  0  0  0
   -2.9347  -19.7489   -4.5769 H   0  0  0  0  0  0  0  0  0  0  0  0
   -5.2652  -20.1200   -4.6685 H   0  0  0  0  0  0  0  0  0  0  0  0
   -1.3708  -16.2463    1.0060 H   0  0  0  0  0  0  0  0  0  0  0  0
   -0.5260  -14.7177    2.5709 H   0  0  0  0  0  0  0  0  0  0  0  0
   -2.0031  -13.5714    4.0800 H   0  0  0  0  0  0  0  0  0  0  0  0
  -14.4409  -13.5228    8.6855 H   0  0  0  0  0  0  0  0  0  0  0  0
  -13.4313  -12.9771   10.7289 H   0  0  0  0  0  0  0  0  0  0  0  0
  -11.1091  -12.7757   10.9076 H   0  0  0  0  0  0  0  0  0  0  0  0
   -0.1931    3.5728   -7.3091 H   0  0  0  0  0  0  0  0  0  0  0  0
    0.1514    1.5230   -6.1549 H   0  0  0  0  0  0  0  0  0  0  0  0
    0.0159    4.9530   -9.3584 H   0  0  0  0  0  0  0  0  0  0  0  0
    0.7562    5.1956  -11.6350 H   0  0  0  0  0  0  0  0  0  0  0  0
    1.9054    3.4100  -12.7462 H   0  0  0  0  0  0  0  0  0  0  0  0
    0.6586   -4.8692   -8.0558 H   0  0  0  0  0  0  0  0  0  0  0  0
    0.4964   -6.8214   -9.2986 H   0  0  0  0  0  0  0  0  0  0  0  0
   -0.0795   -9.2034   -9.4673 H   0  0  0  0  0  0  0  0  0  0  0  0
   -0.9483  -11.1950   -8.4259 H   0  0  0  0  0  0  0  0  0  0  0  0
   -1.3138  -11.2670   -6.0872 H   0  0  0  0  0  0  0  0  0  0  0  0
  -14.7966  -13.7940    2.6752 H   0  0  0  0  0  0  0  0  0  0  0  0
  -16.2242  -13.7336    4.6042 H   0  0  0  0  0  0  0  0  0  0  0  0
  -15.3210  -13.6969    6.7713 H   0  0  0  0  0  0  0  0  0  0  0  0
 45 49  1  0  0  0  0
 49 50  1  0  0  0  0
 49 51  2  0  0  0  0
 46 57  1  0  0  0  0
 56 57  1  0  0  0  0
 68 75  1  0  0  0  0
 74 75  2  0  0  0  0
 73 74  1  0  0  0  0
 72 73  2  0  0  0  0
 69 72  1  0  0  0  0
 64 71  1  0  0  0  0
 70 71  2  0  0  0  0
 69 70  1  0  0  0  0
 68 69  2  0  0  0  0
 63 68  1  0  0  0  0
 67 54  1  0  0  0  0
 66 67  2  0  0  0  0
 62 66  1  0  0  0  0
 59 65  2  0  0  0  0
 64 65  1  0  0  0  0
 63 64  2  0  0  0  0
 62 63  1  0  0  0  0
 58 62  2  0  0  0  0
 52 61  1  0  0  0  0
 60 61  2  0  0  0  0
 59 60  1  0  0  0  0
 58 59  1  0  0  0  0
 53 58  1  0  0  0  0
 54 55  1  0  0  0  0
 53 54  2  0  0  0  0
 52 53  1  0  0  0  0
 55 56  2  0  0  0  0
 50 56  1  0  0  0  0
 50 52  2  0  0  0  0
 43 48  2  0  0  0  0
 47 48  1  0  0  0  0
 46 47  2  0  0  0  0
 45 46  1  0  0  0  0
 44 45  2  0  0  0  0
 43 44  1  0  0  0  0
 20 26  2  0  0  0  0
 23 24  1  0  0  0  0
 19 23  2  0  0  0  0
 17 22  1  0  0  0  0
 21 22  2  0  0  0  0
 20 21  1  0  0  0  0
 19 20  1  0  0  0  0
 16 19  1  0  0  0  0
 12 18  1  0  0  0  0
 17 18  1  0  0  0  0
 16 17  2  0  0  0  0
 15 16  1  0  0  0  0
 11 15  2  0  0  0  0
  9 14  2  0  0  0  0
 13 14  1  0  0  0  0
 12 13  2  0  0  0  0
 11 12  1  0  0  0  0
 10 11  1  0  0  0  0
  6 10  2  0  0  0  0
  9 10  1  0  0  0  0
  8  9  1  0  0  0  0
  7  8  2  0  0  0  0
  1  7  1  0  0  0  0
  1  6  1  0  0  0  0
  5  6  1  0  0  0  0
  4  5  1  0  0  0  0
  3  4  2  0  0  0  0
  2  3  1  0  0  0  0
  1  2  2  0  0  0  0
 37 42  1  0  0  0  0
 41 42  2  0  0  0  0
 40 41  1  0  0  0  0
 39 40  2  0  0  0  0
 38 39  1  0  0  0  0
 34 38  2  0  0  0  0
 37 38  1  0  0  0  0
 36 37  2  0  0  0  0
 35 36  1  0  0  0  0
 33 35  1  0  0  0  0
 29 34  1  0  0  0  0
 33 34  1  0  0  0  0
 32 33  2  0  0  0  0
 31 32  1  0  0  0  0
 28 31  2  0  0  0  0
 26 30  1  0  0  0  0
 29 30  2  0  0  0  0
 28 29  1  0  0  0  0
 27 28  1  0  0  0  0
 25 27  2  0  0  0  0
 25 26  1  0  0  0  0
 24 25  1  0  0  0  0
 22 78  1  0  0  0  0
 77 78  2  0  0  0  0
 76 77  1  0  0  0  0
 18 76  2  0  0  0  0
 15 79  1  0  0  0  0
  5 79  2  0  0  0  0
 30 80  1  0  0  0  0
 39 80  1  0  0  0  0
 66 81  1  0  0  0  0
 75 81  1  0  0  0  0
 83 84  2  0  0  0  0
 84 85  1  0  0  0  0
 85 86  2  0  0  0  0
 86 87  1  0  0  0  0
 82 83  1  0  0  0  0
 82 87  2  0  0  0  0
 88 89  2  0  0  0  0
 89 90  1  0  0  0  0
 90 91  2  0  0  0  0
 83 91  1  0  0  0  0
 84 88  1  0  0  0  0
 87 92  1  0  0  0  0
 92 70  1  0  0  0  0
 31 93  1  0  0  0  0
 93 48  1  0  0  0  0
 82 94  1  0  0  0  0
 71 94  1  0  0  0  0
 94 95  2  0  0  0  0
 14 96  1  0  0  0  0
 73 97  1  0  0  0  0
 97 98  2  0  0  0  0
 36 99  1  0  0  0  0
 99100  2  0  0  0  0
  2101  1  0  0  0  0
101102  2  0  0  0  0
 67103  1  0  0  0  0
104105  1  0  0  0  0
 76104  1  0  0  0  0
105 13  1  0  0  0  0
106107  2  0  0  0  0
107108  1  0  0  0  0
104108  2  0  0  0  0
 77106  1  0  0  0  0
109110  2  0  0  0  0
110111  1  0  0  0  0
 78109  1  0  0  0  0
111106  1  0  0  0  0
112113  2  0  0  0  0
113114  1  0  0  0  0
114115  2  0  0  0  0
 41115  1  0  0  0  0
 42112  1  0  0  0  0
116117  2  0  0  0  0
117118  1  0  0  0  0
 32116  1  0  0  0  0
118 35  2  0  0  0  0
119120  2  0  0  0  0
120121  1  0  0  0  0
 24121  2  0  0  0  0
 27119  1  0  0  0  0
122123  2  0  0  0  0
123124  1  0  0  0  0
105124  2  0  0  0  0
108122  1  0  0  0  0
125126  1  0  0  0  0
126127  1  0  0  0  0
 85125  1  0  0  0  0
127 88  1  0  0  0  0
128129  1  0  0  0  0
129130  2  0  0  0  0
 86130  1  0  0  0  0
125128  2  0  0  0  0
131132  2  0  0  0  0
132133  1  0  0  0  0
128131  1  0  0  0  0
133126  2  0  0  0  0
 61139  1  0  0  0  0
138139  2  0  0  0  0
137138  1  0  0  0  0
136137  2  0  0  0  0
136 60  1  0  0  0  0
135136  1  0  0  0  0
134135  2  0  0  0  0
 65134  1  0  0  0  0
107142  1  0  0  0  0
141142  2  0  0  0  0
140141  1  0  0  0  0
111140  2  0  0  0  0
127143  2  0  0  0  0
 80144  2  0  0  0  0
  3145  1  0  0  0  0
  4146  1  0  0  0  0
  7147  1  0  0  0  0
  8148  1  0  0  0  0
 21149  1  0  0  0  0
 23150  1  0  0  0  0
 40151  1  0  0  0  0
 43152  1  0  0  0  0
 44153  1  0  0  0  0
 47154  1  0  0  0  0
 55155  1  0  0  0  0
 72156  1  0  0  0  0
 74157  1  0  0  0  0
 79158  1  0  0  0  0
 89159  1  0  0  0  0
 90160  1  0  0  0  0
 91161  1  0  0  0  0
 96162  1  0  0  0  0
 97163  1  0  0  0  0
 98164  1  0  0  0  0
 98165  1  0  0  0  0
 99166  1  0  0  0  0
100167  1  0  0  0  0
100168  1  0  0  0  0
101169  1  0  0  0  0
102170  1  0  0  0  0
102171  1  0  0  0  0
103172  1  0  0  0  0
109173  1  0  0  0  0
110174  1  0  0  0  0
112175  1  0  0  0  0
113176  1  0  0  0  0
114177  1  0  0  0  0
115178  1  0  0  0  0
116179  1  0  0  0  0
117180  1  0  0  0  0
118181  1  0  0  0  0
119182  1  0  0  0  0
120183  1  0  0  0  0
121184  1  0  0  0  0
122185  1  0  0  0  0
123186  1  0  0  0  0
124187  1  0  0  0  0
129188  1  0  0  0  0
130189  1  0  0  0  0
131190  1  0  0  0  0
132191  1  0  0  0  0
133192  1  0  0  0  0
134193  1  0  0  0  0
135194  1  0  0  0  0
137195  1  0  0  0  0
138196  1  0  0  0  0
139197  1  0  0  0  0
140198  1  0  0  0  0
141199  1  0  0  0  0
142200  1  0  0  0  0
M  END
