
  Mrv2101 10312211363D          

148177  0  0  0  0            999 V2000
   -4.9234    8.4784    1.5116 C   0  0  0  0  0  0  0  0  0  0  0  0
   -4.1873    7.2742    1.2851 C   0  0  0  0  0  0  0  0  0  0  0  0
   -4.8256    6.0125    1.4240 C   0  0  0  0  0  0  0  0  0  0  0  0
   -6.2304    5.9357    1.6722 C   0  0  0  0  0  0  0  0  0  0  0  0
   -6.9414    7.1391    1.9520 C   0  0  0  0  0  0  0  0  0  0  0  0
   -6.3134    8.4358    1.8773 C   0  0  0  0  0  0  0  0  0  0  0  0
   -2.7998    7.3158    0.9451 C   0  0  0  0  0  0  0  0  0  0  0  0
   -2.1519    8.5659    0.8059 C   0  0  0  0  0  0  0  0  0  0  0  0
   -2.8568    9.7754    1.0362 C   0  0  0  0  0  0  0  0  0  0  0  0
   -4.2311    9.7254    1.3978 C   0  0  0  0  0  0  0  0  0  0  0  0
   -2.0516    6.1183    0.7224 C   0  0  0  0  0  0  0  0  0  0  0  0
   -0.6645    6.1597    0.4121 C   0  0  0  0  0  0  0  0  0  0  0  0
   -0.0194    7.4192    0.3432 C   0  0  0  0  0  0  0  0  0  0  0  0
   -0.7872    8.6084    0.4298 C   0  0  0  0  0  0  0  0  0  0  0  0
    0.0842    4.9627    0.1826 C   0  0  0  0  0  0  0  0  0  0  0  0
    1.4890    5.0195   -0.0747 C   0  0  0  0  0  0  0  0  0  0  0  0
    2.1174    6.2838   -0.0104 C   0  0  0  0  0  0  0  0  0  0  0  0
    1.3883    7.4441    0.2247 C   0  0  0  0  0  0  0  0  0  0  0  0
    2.2026    3.8438   -0.4450 C   0  0  0  0  0  0  0  0  0  0  0  0
    1.4739    2.6311   -0.6317 C   0  0  0  0  0  0  0  0  0  0  0  0
    0.1470    2.5077   -0.1066 C   0  0  0  0  0  0  0  0  0  0  0  0
   -0.5782    3.7063    0.2025 C   0  0  0  0  0  0  0  0  0  0  0  0
   -0.5040    1.2490    0.1158 C   0  0  0  0  0  0  0  0  0  0  0  0
   -1.9053    1.2279    0.2745 C   0  0  0  0  0  0  0  0  0  0  0  0
   -2.6216    2.4100    0.4491 C   0  0  0  0  0  0  0  0  0  0  0  0
   -1.9713    3.6649    0.5201 C   0  0  0  0  0  0  0  0  0  0  0  0
   -2.1635   11.0235    0.9347 C   0  0  0  0  0  0  0  0  0  0  0  0
   -2.8043   12.2313    1.2819 C   0  0  0  0  0  0  0  0  0  0  0  0
   -4.1754   12.1789    1.6527 C   0  0  0  0  0  0  0  0  0  0  0  0
   -4.8950   10.9469    1.6673 C   0  0  0  0  0  0  0  0  0  0  0  0
   -6.9766    9.6948    2.1263 C   0  0  0  0  0  0  0  0  0  0  0  0
   -6.2734   10.9349    1.9957 C   0  0  0  0  0  0  0  0  0  0  0  0
   -2.0765   13.4642    1.2821 C   0  0  0  0  0  0  0  0  0  0  0  0
   -2.7039   14.5471    1.9457 C   0  0  0  0  0  0  0  0  0  0  0  0
   -4.0668   14.5432    2.2465 C   0  0  0  0  0  0  0  0  0  0  0  0
   -4.8227   13.3789    2.0375 C   0  0  0  0  0  0  0  0  0  0  0  0
   -0.8128   11.0775    0.5110 C   0  0  0  0  0  0  0  0  0  0  0  0
   -0.0940   12.3102    0.4673 C   0  0  0  0  0  0  0  0  0  0  0  0
   -0.7587   13.5494    0.7143 C   0  0  0  0  0  0  0  0  0  0  0  0
   -8.3275    9.8260    2.5438 C   0  0  0  0  0  0  0  0  0  0  0  0
   -9.0075   11.0439    2.6560 C   0  0  0  0  0  0  0  0  0  0  0  0
   -8.3107   12.2337    2.4744 C   0  0  0  0  0  0  0  0  0  0  0  0
   -6.9295   12.1861    2.2223 C   0  0  0  0  0  0  0  0  0  0  0  0
   -0.2247    9.8603    0.1272 C   0  0  0  0  0  0  0  0  0  0  0  0
   -8.2646    6.9734    2.2880 O   0  0  0  0  0  0  0  0  0  0  0  0
   -6.9877    4.7191    1.6274 C   0  0  0  0  0  0  0  0  0  0  0  0
   -8.3252    4.6285    2.0812 C   0  0  0  0  0  0  0  0  0  0  0  0
   -6.5277    3.6704    1.1151 O   0  0  0  0  0  0  0  0  0  0  0  0
   -9.0243    3.4078    2.2124 C   0  0  0  0  0  0  0  0  0  0  0  0
  -10.3760    3.3148    2.6470 C   0  0  0  0  0  0  0  0  0  0  0  0
  -11.0595    4.5350    2.9218 C   0  0  0  0  0  0  0  0  0  0  0  0
  -10.3542    5.7738    2.7964 C   0  0  0  0  0  0  0  0  0  0  0  0
   -8.9903    5.8164    2.4018 C   0  0  0  0  0  0  0  0  0  0  0  0
  -11.0568    2.0655    2.8013 C   0  0  0  0  0  0  0  0  0  0  0  0
  -12.4417    2.0500    3.1819 C   0  0  0  0  0  0  0  0  0  0  0  0
  -13.1297    3.2839    3.4292 C   0  0  0  0  0  0  0  0  0  0  0  0
  -12.4382    4.5277    3.3100 C   0  0  0  0  0  0  0  0  0  0  0  0
  -14.5010    3.3380    3.7966 C   0  0  0  0  0  0  0  0  0  0  0  0
  -15.1884    4.5403    4.0387 C   0  0  0  0  0  0  0  0  0  0  0  0
  -14.5040    5.7816    3.9275 C   0  0  0  0  0  0  0  0  0  0  0  0
  -13.1201    5.7665    3.5681 C   0  0  0  0  0  0  0  0  0  0  0  0
    0.1246   -0.0191    0.2568 C   0  0  0  0  0  0  0  0  0  0  0  0
   -2.5916    0.0525    0.2980 O   0  0  0  0  0  0  0  0  0  0  0  0
    1.3124   -0.0372    0.6564 O   0  0  0  0  0  0  0  0  0  0  0  0
   -0.5724   -1.2481    0.0880 C   0  0  0  0  0  0  0  0  0  0  0  0
    0.0199   -2.5328   -0.1390 C   0  0  0  0  0  0  0  0  0  0  0  0
   -0.8134   -3.6977   -0.1373 C   0  0  0  0  0  0  0  0  0  0  0  0
   -2.2086   -3.5706    0.0315 C   0  0  0  0  0  0  0  0  0  0  0  0
   -2.7924   -2.3053    0.1678 C   0  0  0  0  0  0  0  0  0  0  0  0
   -1.9858   -1.1586    0.1755 C   0  0  0  0  0  0  0  0  0  0  0  0
  -11.0429    6.9649    3.0636 C   0  0  0  0  0  0  0  0  0  0  0  0
  -12.3796    6.9643    3.4462 C   0  0  0  0  0  0  0  0  0  0  0  0
  -10.4036    0.8118    2.5903 C   0  0  0  0  0  0  0  0  0  0  0  0
  -11.0662   -0.4140    2.7113 C   0  0  0  0  0  0  0  0  0  0  0  0
  -12.4136   -0.4304    3.0629 C   0  0  0  0  0  0  0  0  0  0  0  0
  -13.0825    0.7778    3.2977 C   0  0  0  0  0  0  0  0  0  0  0  0
   -0.2521   -4.9833   -0.3225 C   0  0  0  0  0  0  0  0  0  0  0  0
    1.1227   -5.1337   -0.5605 C   0  0  0  0  0  0  0  0  0  0  0  0
    1.9456   -4.0012   -0.6232 C   0  0  0  0  0  0  0  0  0  0  0  0
    1.4001   -2.7224   -0.4232 C   0  0  0  0  0  0  0  0  0  0  0  0
  -16.5618    4.4988    4.3885 C   0  0  0  0  0  0  0  0  0  0  0  0
  -17.2762    5.6800    4.6290 C   0  0  0  0  0  0  0  0  0  0  0  0
  -16.6253    6.9150    4.5237 C   0  0  0  0  0  0  0  0  0  0  0  0
  -15.2634    6.9633    4.1792 C   0  0  0  0  0  0  0  0  0  0  0  0
    1.3028   12.3388    0.2335 C   0  0  0  0  0  0  0  0  0  0  0  0
    2.0067   13.5305    0.0933 C   0  0  0  0  0  0  0  0  0  0  0  0
    1.3627   14.7820    0.1671 C   0  0  0  0  0  0  0  0  0  0  0  0
   -0.0515   14.7719    0.4020 C   0  0  0  0  0  0  0  0  0  0  0  0
    2.1044    1.6047   -1.3930 C   0  0  0  0  0  0  0  0  0  0  0  0
    3.4736    1.6340   -1.6942 C   0  0  0  0  0  0  0  0  0  0  0  0
    4.2396    2.7282   -1.2874 C   0  0  0  0  0  0  0  0  0  0  0  0
    3.6080    3.8252   -0.6866 C   0  0  0  0  0  0  0  0  0  0  0  0
   -2.6798    4.8606    0.8500 C   0  0  0  0  0  0  0  0  0  0  0  0
   -4.0037    4.8615    1.3372 C   0  0  0  0  0  0  0  0  0  0  0  0
    2.0861   16.0134    0.0327 C   0  0  0  0  0  0  0  0  0  0  0  0
    1.3862   17.2468    0.1854 C   0  0  0  0  0  0  0  0  0  0  0  0
   -0.0254   17.2434    0.2888 C   0  0  0  0  0  0  0  0  0  0  0  0
   -0.7098   16.0178    0.2651 C   0  0  0  0  0  0  0  0  0  0  0  0
    2.0761   18.4953    0.2162 C   0  0  0  0  0  0  0  0  0  0  0  0
    1.3630   19.6960    0.4246 C   0  0  0  0  0  0  0  0  0  0  0  0
   -0.0360   19.6758    0.5258 C   0  0  0  0  0  0  0  0  0  0  0  0
   -0.7307   18.4594    0.4354 C   0  0  0  0  0  0  0  0  0  0  0  0
    3.4815   16.1022   -0.2288 C   0  0  0  0  0  0  0  0  0  0  0  0
    4.1615   17.3299   -0.2353 C   0  0  0  0  0  0  0  0  0  0  0  0
    3.4698   18.5191    0.0223 C   0  0  0  0  0  0  0  0  0  0  0  0
   -6.2057   13.3894    2.2541 C   0  0  0  0  0  0  0  0  0  0  0  0
    3.1161    6.4134   -0.1584 H   0  0  0  0  0  0  0  0  0  0  0  0
    1.9257    8.3089    0.3111 H   0  0  0  0  0  0  0  0  0  0  0  0
   -3.6339    2.3141    0.5343 H   0  0  0  0  0  0  0  0  0  0  0  0
   -2.1779   15.3716    2.2305 H   0  0  0  0  0  0  0  0  0  0  0  0
   -4.4890   15.3919    2.6313 H   0  0  0  0  0  0  0  0  0  0  0  0
   -8.8677    9.0430    2.8185 H   0  0  0  0  0  0  0  0  0  0  0  0
  -10.0012   11.0634    2.8990 H   0  0  0  0  0  0  0  0  0  0  0  0
   -8.8099   13.1232    2.5678 H   0  0  0  0  0  0  0  0  0  0  0  0
    0.6343    9.8773   -0.4116 H   0  0  0  0  0  0  0  0  0  0  0  0
   -8.5033    2.5703    1.9781 H   0  0  0  0  0  0  0  0  0  0  0  0
  -15.0490    2.4886    3.8975 H   0  0  0  0  0  0  0  0  0  0  0  0
   -2.8148   -4.3964    0.0410 H   0  0  0  0  0  0  0  0  0  0  0  0
   -3.8069   -2.2222    0.2653 H   0  0  0  0  0  0  0  0  0  0  0  0
  -10.5971    7.8652    2.9784 H   0  0  0  0  0  0  0  0  0  0  0  0
  -12.7843    7.8789    3.6263 H   0  0  0  0  0  0  0  0  0  0  0  0
   -9.4213    0.7329    2.3453 H   0  0  0  0  0  0  0  0  0  0  0  0
  -10.5651   -1.2911    2.5450 H   0  0  0  0  0  0  0  0  0  0  0  0
  -12.9047   -1.3226    3.1517 H   0  0  0  0  0  0  0  0  0  0  0  0
  -14.0580    0.6754    3.5576 H   0  0  0  0  0  0  0  0  0  0  0  0
   -0.8389   -5.8224   -0.2922 H   0  0  0  0  0  0  0  0  0  0  0  0
    1.5240   -6.0646   -0.6965 H   0  0  0  0  0  0  0  0  0  0  0  0
    2.9437   -4.1056   -0.8229 H   0  0  0  0  0  0  0  0  0  0  0  0
    2.0413   -1.9381   -0.5199 H   0  0  0  0  0  0  0  0  0  0  0  0
  -17.0601    3.6083    4.4697 H   0  0  0  0  0  0  0  0  0  0  0  0
  -18.2663    5.6411    4.8776 H   0  0  0  0  0  0  0  0  0  0  0  0
  -17.1420    7.7825    4.6965 H   0  0  0  0  0  0  0  0  0  0  0  0
  -14.8556    7.8948    4.1188 H   0  0  0  0  0  0  0  0  0  0  0  0
    1.8658   11.4896    0.1851 H   0  0  0  0  0  0  0  0  0  0  0  0
    3.0072   13.4401   -0.0700 H   0  0  0  0  0  0  0  0  0  0  0  0
    1.5751    0.8058   -1.7460 H   0  0  0  0  0  0  0  0  0  0  0  0
    3.9119    0.8595   -2.2003 H   0  0  0  0  0  0  0  0  0  0  0  0
    5.2488    2.7384   -1.4540 H   0  0  0  0  0  0  0  0  0  0  0  0
    4.2144    4.6046   -0.4422 H   0  0  0  0  0  0  0  0  0  0  0  0
   -4.3580    3.9838    1.6885 H   0  0  0  0  0  0  0  0  0  0  0  0
   -1.7228   16.0490    0.1548 H   0  0  0  0  0  0  0  0  0  0  0  0
    1.8526   20.5920    0.4945 H   0  0  0  0  0  0  0  0  0  0  0  0
   -0.5484   20.5485    0.6659 H   0  0  0  0  0  0  0  0  0  0  0  0
   -1.7520   18.4679    0.5052 H   0  0  0  0  0  0  0  0  0  0  0  0
    4.0479   15.2803   -0.4233 H   0  0  0  0  0  0  0  0  0  0  0  0
    5.1660   17.3570   -0.4245 H   0  0  0  0  0  0  0  0  0  0  0  0
    3.9888   19.3995    0.0498 H   0  0  0  0  0  0  0  0  0  0  0  0
   -6.6775   14.2756    2.4642 H   0  0  0  0  0  0  0  0  0  0  0  0
 37 44  2  0  0  0  0
 14 44  1  0  0  0  0
  5 45  1  0  0  0  0
  4 46  1  0  0  0  0
 46 47  1  0  0  0  0
 46 48  2  0  0  0  0
 53 45  1  0  0  0  0
 23 62  1  0  0  0  0
 24 63  1  0  0  0  0
 62 64  2  0  0  0  0
 62 65  1  0  0  0  0
 70 63  1  0  0  0  0
 66 80  2  0  0  0  0
 79 80  1  0  0  0  0
 78 79  2  0  0  0  0
 77 78  1  0  0  0  0
 67 77  2  0  0  0  0
 65 70  2  0  0  0  0
 69 70  1  0  0  0  0
 68 69  2  0  0  0  0
 67 68  1  0  0  0  0
 66 67  1  0  0  0  0
 65 66  1  0  0  0  0
 60 84  1  0  0  0  0
 83 84  2  0  0  0  0
 82 83  1  0  0  0  0
 81 82  2  0  0  0  0
 59 81  1  0  0  0  0
 55 76  1  0  0  0  0
 75 76  2  0  0  0  0
 74 75  1  0  0  0  0
 73 74  2  0  0  0  0
 54 73  1  0  0  0  0
 72 61  1  0  0  0  0
 71 72  2  0  0  0  0
 52 71  1  0  0  0  0
 57 61  2  0  0  0  0
 60 61  1  0  0  0  0
 59 60  2  0  0  0  0
 58 59  1  0  0  0  0
 56 58  2  0  0  0  0
 57 51  1  0  0  0  0
 56 57  1  0  0  0  0
 55 56  1  0  0  0  0
 55 54  2  0  0  0  0
 50 54  1  0  0  0  0
 47 53  2  0  0  0  0
 52 53  1  0  0  0  0
 51 52  2  0  0  0  0
 50 51  1  0  0  0  0
 49 50  2  0  0  0  0
 47 49  1  0  0  0  0
106 43  1  0  0  0  0
 36106  2  0  0  0  0
 99105  2  0  0  0  0
104105  1  0  0  0  0
103104  2  0  0  0  0
 95103  1  0  0  0  0
 97102  2  0  0  0  0
101102  1  0  0  0  0
100101  2  0  0  0  0
 99100  1  0  0  0  0
 96 99  1  0  0  0  0
 88 98  2  0  0  0  0
 97 98  1  0  0  0  0
 96 97  1  0  0  0  0
 95 96  2  0  0  0  0
 87 95  1  0  0  0  0
 93 94  2  0  0  0  0
 94  3  1  0  0  0  0
 11 93  1  0  0  0  0
 26 93  1  0  0  0  0
 91 92  1  0  0  0  0
 19 92  2  0  0  0  0
 90 91  2  0  0  0  0
 89 90  1  0  0  0  0
 20 89  2  0  0  0  0
 39 88  1  0  0  0  0
 87 88  1  0  0  0  0
 86 87  2  0  0  0  0
 85 86  1  0  0  0  0
 38 85  2  0  0  0  0
 32 43  1  0  0  0  0
 42 43  2  0  0  0  0
 41 42  1  0  0  0  0
 40 41  2  0  0  0  0
 31 40  1  0  0  0  0
 33 39  2  0  0  0  0
 38 39  1  0  0  0  0
 37 38  1  0  0  0  0
 27 37  1  0  0  0  0
 29 36  1  0  0  0  0
 35 36  1  0  0  0  0
 34 35  2  0  0  0  0
 33 34  1  0  0  0  0
 28 33  1  0  0  0  0
 30 32  1  0  0  0  0
 31 32  2  0  0  0  0
  6 31  1  0  0  0  0
 10 30  1  0  0  0  0
 29 30  2  0  0  0  0
 28 29  1  0  0  0  0
 27 28  2  0  0  0  0
  9 27  1  0  0  0  0
 22 26  1  0  0  0  0
 25 26  2  0  0  0  0
 24 25  1  0  0  0  0
 23 24  2  0  0  0  0
 21 23  1  0  0  0  0
 15 22  1  0  0  0  0
 21 22  2  0  0  0  0
 20 21  1  0  0  0  0
 19 20  1  0  0  0  0
 16 19  1  0  0  0  0
 13 18  1  0  0  0  0
 17 18  2  0  0  0  0
 16 17  1  0  0  0  0
 15 16  2  0  0  0  0
 12 15  1  0  0  0  0
  8 14  1  0  0  0  0
 13 14  2  0  0  0  0
 12 13  1  0  0  0  0
 11 12  2  0  0  0  0
  7 11  1  0  0  0  0
  1 10  1  0  0  0  0
  9 10  2  0  0  0  0
  8  9  1  0  0  0  0
  7  8  2  0  0  0  0
  2  7  1  0  0  0  0
  1  6  2  0  0  0  0
  5  6  1  0  0  0  0
  4  5  2  0  0  0  0
  3  4  1  0  0  0  0
  2  3  2  0  0  0  0
  1  2  1  0  0  0  0
 17107  1  0  0  0  0
 18108  1  0  0  0  0
 25109  1  0  0  0  0
 34110  1  0  0  0  0
 35111  1  0  0  0  0
 40112  1  0  0  0  0
 41113  1  0  0  0  0
 42114  1  0  0  0  0
 44115  1  0  0  0  0
 49116  1  0  0  0  0
 58117  1  0  0  0  0
 68118  1  0  0  0  0
 69119  1  0  0  0  0
 71120  1  0  0  0  0
 72121  1  0  0  0  0
 73122  1  0  0  0  0
 74123  1  0  0  0  0
 75124  1  0  0  0  0
 76125  1  0  0  0  0
 77126  1  0  0  0  0
 78127  1  0  0  0  0
 79128  1  0  0  0  0
 80129  1  0  0  0  0
 81130  1  0  0  0  0
 82131  1  0  0  0  0
 83132  1  0  0  0  0
 84133  1  0  0  0  0
 85134  1  0  0  0  0
 86135  1  0  0  0  0
 89136  1  0  0  0  0
 90137  1  0  0  0  0
 91138  1  0  0  0  0
 92139  1  0  0  0  0
 94140  1  0  0  0  0
 98141  1  0  0  0  0
100142  1  0  0  0  0
101143  1  0  0  0  0
102144  1  0  0  0  0
103145  1  0  0  0  0
104146  1  0  0  0  0
105147  1  0  0  0  0
106148  1  0  0  0  0
M  END
