
  Mrv2101 10312211383D          

 62 73  0  0  0  0            999 V2000
   -2.8242   12.2043   -0.0000 C   0  0  0  0  0  0  0  0  0  0  0  0
   -2.0781   10.9868   -0.0000 C   0  0  0  0  0  0  0  0  0  0  0  0
   -2.7788    9.7509   -0.0000 C   0  0  0  0  0  0  0  0  0  0  0  0
   -4.2003    9.7491   -0.0000 C   0  0  0  0  0  0  0  0  0  0  0  0
   -4.9159   10.9626   -0.0000 C   0  0  0  0  0  0  0  0  0  0  0  0
   -4.2321   12.1823   -0.0000 C   0  0  0  0  0  0  0  0  0  0  0  0
   -0.6502   11.0045   -0.0000 C   0  0  0  0  0  0  0  0  0  0  0  0
   -0.0214   12.2816   -0.0000 C   0  0  0  0  0  0  0  0  0  0  0  0
   -0.7584   13.4767   -0.0000 C   0  0  0  0  0  0  0  0  0  0  0  0
   -2.1552   13.4418   -0.0000 C   0  0  0  0  0  0  0  0  0  0  0  0
   -2.0665    8.5205   -0.0000 C   0  0  0  0  0  0  0  0  0  0  0  0
   -0.6487    8.5242   -0.0000 C   0  0  0  0  0  0  0  0  0  0  0  0
    0.0663    9.7656   -0.0000 C   0  0  0  0  0  0  0  0  0  0  0  0
   -2.7747    7.2865   -0.0000 C   0  0  0  0  0  0  0  0  0  0  0  0
   -4.1953    7.3122   -0.0000 C   0  0  0  0  0  0  0  0  0  0  0  0
   -4.8964    8.5310   -0.0000 C   0  0  0  0  0  0  0  0  0  0  0  0
   -2.0841    6.0350   -0.0000 C   0  0  0  0  0  0  0  0  0  0  0  0
   -2.8117    4.8029    0.0000 C   0  0  0  0  0  0  0  0  0  0  0  0
   -4.2324    4.8898    0.0000 C   0  0  0  0  0  0  0  0  0  0  0  0
   -4.9116    6.1086    0.0000 C   0  0  0  0  0  0  0  0  0  0  0  0
   -0.6639    6.0289   -0.0000 C   0  0  0  0  0  0  0  0  0  0  0  0
    0.0408    7.2745   -0.0000 C   0  0  0  0  0  0  0  0  0  0  0  0
    1.4595    7.2752   -0.0000 C   0  0  0  0  0  0  0  0  0  0  0  0
    2.1714    8.4842   -0.0000 C   0  0  0  0  0  0  0  0  0  0  0  0
    1.4853    9.7015   -0.0000 C   0  0  0  0  0  0  0  0  0  0  0  0
    0.0446    4.7874   -0.0000 C   0  0  0  0  0  0  0  0  0  0  0  0
    1.4657    4.8548   -0.0000 C   0  0  0  0  0  0  0  0  0  0  0  0
    2.1616    6.0637   -0.0000 C   0  0  0  0  0  0  0  0  0  0  0  0
   -0.6760    3.5493    0.0000 C   0  0  0  0  0  0  0  0  0  0  0  0
   -2.1061    3.5552    0.0000 C   0  0  0  0  0  0  0  0  0  0  0  0
   -0.0164    2.2864    0.0000 C   0  0  0  0  0  0  0  0  0  0  0  0
   -0.6901    1.0462    0.0000 C   0  0  0  0  0  0  0  0  0  0  0  0
   -2.1035    1.0494    0.0000 C   0  0  0  0  0  0  0  0  0  0  0  0
   -2.7744    2.2947    0.0000 C   0  0  0  0  0  0  0  0  0  0  0  0
   -2.8048   -0.1862    0.0000 C   0  0  0  0  0  0  0  0  0  0  0  0
   -4.0614   -0.1877    0.0000 O   0  0  0  0  0  0  0  0  0  0  0  0
   -2.1063   -1.4207    0.0000 C   0  0  0  0  0  0  0  0  0  0  0  0
    0.0151   -0.1870    0.0000 C   0  0  0  0  0  0  0  0  0  0  0  0
   -0.6804   -1.4212    0.0000 C   0  0  0  0  0  0  0  0  0  0  0  0
    1.2720   -0.1883   -0.0000 O   0  0  0  0  0  0  0  0  0  0  0  0
    0.0098   -2.6626    0.0000 C   0  0  0  0  0  0  0  0  0  0  0  0
   -0.6902   -3.8810    0.0000 C   0  0  0  0  0  0  0  0  0  0  0  0
   -2.0915   -3.8811    0.0000 C   0  0  0  0  0  0  0  0  0  0  0  0
   -2.7933   -2.6636    0.0000 C   0  0  0  0  0  0  0  0  0  0  0  0
   -5.9397   10.9707   -0.0000 H   0  0  0  0  0  0  0  0  0  0  0  0
   -4.7739   13.0522   -0.0000 H   0  0  0  0  0  0  0  0  0  0  0  0
    0.9907   12.3885   -0.0000 H   0  0  0  0  0  0  0  0  0  0  0  0
   -0.2751   14.3787   -0.0000 H   0  0  0  0  0  0  0  0  0  0  0  0
   -2.6780   14.3242   -0.0000 H   0  0  0  0  0  0  0  0  0  0  0  0
   -5.9222    8.5329   -0.0000 H   0  0  0  0  0  0  0  0  0  0  0  0
   -4.8357    4.0724    0.0000 H   0  0  0  0  0  0  0  0  0  0  0  0
   -5.9376    6.1053    0.0000 H   0  0  0  0  0  0  0  0  0  0  0  0
    3.1963    8.4928   -0.0000 H   0  0  0  0  0  0  0  0  0  0  0  0
    2.0678   10.5364   -0.0000 H   0  0  0  0  0  0  0  0  0  0  0  0
    2.0591    4.0314   -0.0000 H   0  0  0  0  0  0  0  0  0  0  0  0
    3.1864    6.0419   -0.0000 H   0  0  0  0  0  0  0  0  0  0  0  0
    0.9947    2.2367   -0.0000 H   0  0  0  0  0  0  0  0  0  0  0  0
   -3.7874    2.2535    0.0000 H   0  0  0  0  0  0  0  0  0  0  0  0
    1.0329   -2.6983   -0.0000 H   0  0  0  0  0  0  0  0  0  0  0  0
   -0.1785   -4.7676    0.0000 H   0  0  0  0  0  0  0  0  0  0  0  0
   -2.6019   -4.7680    0.0000 H   0  0  0  0  0  0  0  0  0  0  0  0
   -3.8157   -2.7001    0.0000 H   0  0  0  0  0  0  0  0  0  0  0  0
  1  2  4  0  0  0  0
  2  3  4  0  0  0  0
  3  4  4  0  0  0  0
  4  5  4  0  0  0  0
  5  6  4  0  0  0  0
  1  6  4  0  0  0  0
  7  8  4  0  0  0  0
  8  9  4  0  0  0  0
  9 10  4  0  0  0  0
  1 10  4  0  0  0  0
  2  7  4  0  0  0  0
 11 12  4  0  0  0  0
  3 11  4  0  0  0  0
 13  7  4  0  0  0  0
 14 15  4  0  0  0  0
 11 14  4  0  0  0  0
 17 18  4  0  0  0  0
 18 19  4  0  0  0  0
 19 20  4  0  0  0  0
 14 17  4  0  0  0  0
 15 20  4  0  0  0  0
 33 35  1  0  0  0  0
 35 36  2  0  0  0  0
 35 37  1  0  0  0  0
 32 38  1  0  0  0  0
 38 39  1  0  0  0  0
 38 40  2  0  0  0  0
 30 34  4  0  0  0  0
 33 34  4  0  0  0  0
 32 33  4  0  0  0  0
 31 32  4  0  0  0  0
 29 31  4  0  0  0  0
 30 18  4  0  0  0  0
 29 30  4  0  0  0  0
 26 29  4  0  0  0  0
 28 23  4  0  0  0  0
 27 28  4  0  0  0  0
 26 27  4  0  0  0  0
 21 26  4  0  0  0  0
 25 13  4  0  0  0  0
 24 25  4  0  0  0  0
 23 24  4  0  0  0  0
 22 23  4  0  0  0  0
 22 12  4  0  0  0  0
 21 22  4  0  0  0  0
 17 21  4  0  0  0  0
  4 16  4  0  0  0  0
 15 16  4  0  0  0  0
 12 13  4  0  0  0  0
 37 44  4  0  0  0  0
 43 44  4  0  0  0  0
 42 43  4  0  0  0  0
 41 42  4  0  0  0  0
 39 41  4  0  0  0  0
 37 39  4  0  0  0  0
  5 45  1  0  0  0  0
  6 46  1  0  0  0  0
  8 47  1  0  0  0  0
  9 48  1  0  0  0  0
 10 49  1  0  0  0  0
 16 50  1  0  0  0  0
 19 51  1  0  0  0  0
 20 52  1  0  0  0  0
 24 53  1  0  0  0  0
 25 54  1  0  0  0  0
 27 55  1  0  0  0  0
 28 56  1  0  0  0  0
 31 57  1  0  0  0  0
 34 58  1  0  0  0  0
 41 59  1  0  0  0  0
 42 60  1  0  0  0  0
 43 61  1  0  0  0  0
 44 62  1  0  0  0  0
M  END
