
  Mrv2101 10312211383D          

 95115  0  0  0  0            999 V2000
  -14.4411   -2.2729    9.3501 C   0  0  0  0  0  0  0  0  0  0  0  0
  -13.1314   -1.7377    9.4607 C   0  0  0  0  0  0  0  0  0  0  0  0
  -12.2192   -1.7475    8.3350 C   0  0  0  0  0  0  0  0  0  0  0  0
  -12.6786   -2.3575    7.1289 C   0  0  0  0  0  0  0  0  0  0  0  0
  -14.0145   -2.8718    7.0108 C   0  0  0  0  0  0  0  0  0  0  0  0
  -14.9219   -2.7740    8.1081 C   0  0  0  0  0  0  0  0  0  0  0  0
  -12.6197   -1.1904   10.6743 C   0  0  0  0  0  0  0  0  0  0  0  0
  -13.4053   -1.4673   11.8258 C   0  0  0  0  0  0  0  0  0  0  0  0
  -14.7189   -1.9484   11.7500 C   0  0  0  0  0  0  0  0  0  0  0  0
  -15.2650   -2.3035   10.5073 C   0  0  0  0  0  0  0  0  0  0  0  0
  -10.8612   -1.2130    8.3873 C   0  0  0  0  0  0  0  0  0  0  0  0
  -10.4578   -0.5864    9.5969 C   0  0  0  0  0  0  0  0  0  0  0  0
  -11.3642   -0.4731   10.7105 C   0  0  0  0  0  0  0  0  0  0  0  0
   -9.9894   -1.3136    7.2822 C   0  0  0  0  0  0  0  0  0  0  0  0
  -10.4560   -1.9525    6.1085 C   0  0  0  0  0  0  0  0  0  0  0  0
  -11.7796   -2.4700    6.0281 C   0  0  0  0  0  0  0  0  0  0  0  0
   -8.6648   -0.7927    7.3565 C   0  0  0  0  0  0  0  0  0  0  0  0
   -7.7814   -0.8976    6.2416 C   0  0  0  0  0  0  0  0  0  0  0  0
   -8.2818   -1.5525    5.0845 C   0  0  0  0  0  0  0  0  0  0  0  0
   -9.5806   -2.0804    5.0039 C   0  0  0  0  0  0  0  0  0  0  0  0
   -8.2313   -0.1733    8.5563 C   0  0  0  0  0  0  0  0  0  0  0  0
   -9.1279   -0.0713    9.6657 C   0  0  0  0  0  0  0  0  0  0  0  0
   -8.6839    0.5495   10.8593 C   0  0  0  0  0  0  0  0  0  0  0  0
   -9.5879    0.7606   11.9314 C   0  0  0  0  0  0  0  0  0  0  0  0
  -10.9537    0.3684   11.8020 C   0  0  0  0  0  0  0  0  0  0  0  0
   -6.9043    0.3425    8.6329 C   0  0  0  0  0  0  0  0  0  0  0  0
   -6.4728    0.9288    9.8497 C   0  0  0  0  0  0  0  0  0  0  0  0
   -7.3458    1.0138   10.9653 C   0  0  0  0  0  0  0  0  0  0  0  0
   -6.0053    0.2732    7.5203 C   0  0  0  0  0  0  0  0  0  0  0  0
   -6.4554   -0.3587    6.3259 C   0  0  0  0  0  0  0  0  0  0  0  0
   -4.6741    0.8243    7.5990 C   0  0  0  0  0  0  0  0  0  0  0  0
   -3.7572    0.7203    6.4836 C   0  0  0  0  0  0  0  0  0  0  0  0
   -4.2239    0.0730    5.3096 C   0  0  0  0  0  0  0  0  0  0  0  0
   -5.5352   -0.4291    5.2525 C   0  0  0  0  0  0  0  0  0  0  0  0
   -3.4000   -0.0979    4.1682 C   0  0  0  0  0  0  0  0  0  0  0  0
   -2.0669    0.3674    4.1005 C   0  0  0  0  0  0  0  0  0  0  0  0
   -2.4006    1.1816    6.4187 C   0  0  0  0  0  0  0  0  0  0  0  0
   -1.5751    1.0250    5.2633 C   0  0  0  0  0  0  0  0  0  0  0  0
   -1.8578    1.7442    7.3947 O   0  0  0  0  0  0  0  0  0  0  0  0
   -0.2477    1.5205    5.2476 C   0  0  0  0  0  0  0  0  0  0  0  0
    0.5905    1.3813    4.1298 C   0  0  0  0  0  0  0  0  0  0  0  0
    0.1063    0.7264    2.9679 C   0  0  0  0  0  0  0  0  0  0  0  0
   -1.2263    0.2097    2.9448 C   0  0  0  0  0  0  0  0  0  0  0  0
  -10.0106   -2.7398    3.8317 C   0  0  0  0  0  0  0  0  0  0  0  0
  -11.3078   -3.2568    3.7472 C   0  0  0  0  0  0  0  0  0  0  0  0
  -12.1952   -3.1170    4.8307 C   0  0  0  0  0  0  0  0  0  0  0  0
  -13.4963   -3.6293    4.7249 C   0  0  0  0  0  0  0  0  0  0  0  0
  -14.3860   -3.5039    5.7936 C   0  0  0  0  0  0  0  0  0  0  0  0
  -16.6073   -2.7163   10.4115 C   0  0  0  0  0  0  0  0  0  0  0  0
  -17.1230   -3.1259    9.1781 C   0  0  0  0  0  0  0  0  0  0  0  0
  -16.2918   -3.1616    8.0489 C   0  0  0  0  0  0  0  0  0  0  0  0
   -9.1248    1.4153   13.1119 C   0  0  0  0  0  0  0  0  0  0  0  0
  -10.0330    1.7637   14.1276 C   0  0  0  0  0  0  0  0  0  0  0  0
  -11.3991    1.5592   13.9300 C   0  0  0  0  0  0  0  0  0  0  0  0
  -11.8443    0.9214   12.7642 C   0  0  0  0  0  0  0  0  0  0  0  0
   -6.8837    1.5927   12.1790 C   0  0  0  0  0  0  0  0  0  0  0  0
   -7.7698    1.7645   13.2538 C   0  0  0  0  0  0  0  0  0  0  0  0
   -5.1645    1.4574    9.9533 C   0  0  0  0  0  0  0  0  0  0  0  0
   -4.7034    1.9873   11.1803 C   0  0  0  0  0  0  0  0  0  0  0  0
   -5.5524    2.0375   12.2914 C   0  0  0  0  0  0  0  0  0  0  0  0
   -4.3292    1.4493    8.8262 C   0  0  0  0  0  0  0  0  0  0  0  0
    0.9747    0.6003    1.8384 C   0  0  0  0  0  0  0  0  0  0  0  0
    0.5148   -0.0555    0.6756 C   0  0  0  0  0  0  0  0  0  0  0  0
   -0.7851   -0.5742    0.6397 C   0  0  0  0  0  0  0  0  0  0  0  0
   -1.6360   -0.4402    1.7475 C   0  0  0  0  0  0  0  0  0  0  0  0
    2.2860    1.1258    1.8943 C   0  0  0  0  0  0  0  0  0  0  0  0
    2.7482    1.7669    3.0524 C   0  0  0  0  0  0  0  0  0  0  0  0
    1.9066    1.8930    4.1660 C   0  0  0  0  0  0  0  0  0  0  0  0
    1.2909   -0.2176   -0.4299 O   0  0  0  0  0  0  0  0  0  0  0  0
  -13.0343   -1.3341   12.7645 H   0  0  0  0  0  0  0  0  0  0  0  0
  -15.2681   -2.0456   12.6080 H   0  0  0  0  0  0  0  0  0  0  0  0
   -7.7100   -1.6686    4.2554 H   0  0  0  0  0  0  0  0  0  0  0  0
   -5.8016   -0.8649    4.3766 H   0  0  0  0  0  0  0  0  0  0  0  0
   -3.7996   -0.5803    3.3650 H   0  0  0  0  0  0  0  0  0  0  0  0
    0.1274    2.0039    6.0693 H   0  0  0  0  0  0  0  0  0  0  0  0
   -9.3855   -2.8549    3.0287 H   0  0  0  0  0  0  0  0  0  0  0  0
  -11.5977   -3.7377    2.8912 H   0  0  0  0  0  0  0  0  0  0  0  0
  -13.8096   -4.1028    3.8713 H   0  0  0  0  0  0  0  0  0  0  0  0
  -15.3073   -3.9127    5.6475 H   0  0  0  0  0  0  0  0  0  0  0  0
  -17.2188   -2.7163   11.2321 H   0  0  0  0  0  0  0  0  0  0  0  0
  -18.1038   -3.4062    9.1050 H   0  0  0  0  0  0  0  0  0  0  0  0
  -16.7315   -3.4736    7.1864 H   0  0  0  0  0  0  0  0  0  0  0  0
   -9.7149    2.2100   14.9914 H   0  0  0  0  0  0  0  0  0  0  0  0
  -12.0677    1.8848   14.6296 H   0  0  0  0  0  0  0  0  0  0  0  0
  -12.8525    0.8918   12.6323 H   0  0  0  0  0  0  0  0  0  0  0  0
   -7.4354    2.1874   14.1281 H   0  0  0  0  0  0  0  0  0  0  0  0
   -3.7464    2.3395   11.2802 H   0  0  0  0  0  0  0  0  0  0  0  0
   -5.1975    2.4198   13.1722 H   0  0  0  0  0  0  0  0  0  0  0  0
   -3.4496    1.9301    8.9461 H   0  0  0  0  0  0  0  0  0  0  0  0
   -1.1158   -1.0541   -0.2015 H   0  0  0  0  0  0  0  0  0  0  0  0
   -2.5648   -0.8392    1.6385 H   0  0  0  0  0  0  0  0  0  0  0  0
    2.9218    1.0470    1.0951 H   0  0  0  0  0  0  0  0  0  0  0  0
    3.6983    2.1420    3.0876 H   0  0  0  0  0  0  0  0  0  0  0  0
    2.2640    2.3612    5.0018 H   0  0  0  0  0  0  0  0  0  0  0  0
    1.3212    0.6686   -0.8487 H   0  0  0  0  0  0  0  0  0  0  0  0
  1  2  2  0  0  0  0
  2  3  1  0  0  0  0
  3  4  1  0  0  0  0
  4  5  2  0  0  0  0
  5  6  1  0  0  0  0
  1  6  1  0  0  0  0
  7  8  2  0  0  0  0
  8  9  1  0  0  0  0
  9 10  2  0  0  0  0
  1 10  1  0  0  0  0
  2  7  1  0  0  0  0
 11 12  1  0  0  0  0
  3 11  2  0  0  0  0
 13  7  1  0  0  0  0
 14 15  1  0  0  0  0
 11 14  1  0  0  0  0
 17 18  1  0  0  0  0
 18 19  2  0  0  0  0
 19 20  1  0  0  0  0
 14 17  2  0  0  0  0
 15 20  2  0  0  0  0
 33 35  1  0  0  0  0
 35 36  2  0  0  0  0
 32 37  1  0  0  0  0
 37 38  1  0  0  0  0
 37 39  2  0  0  0  0
 30 34  1  0  0  0  0
 33 34  2  0  0  0  0
 32 33  1  0  0  0  0
 31 32  2  0  0  0  0
 29 31  1  0  0  0  0
 30 18  1  0  0  0  0
 29 30  2  0  0  0  0
 26 29  1  0  0  0  0
 28 23  1  0  0  0  0
 27 28  1  0  0  0  0
 26 27  2  0  0  0  0
 21 26  1  0  0  0  0
 25 13  1  0  0  0  0
 24 25  1  0  0  0  0
 23 24  2  0  0  0  0
 22 23  1  0  0  0  0
 22 12  1  0  0  0  0
 21 22  2  0  0  0  0
 17 21  1  0  0  0  0
  4 16  1  0  0  0  0
 15 16  1  0  0  0  0
 12 13  2  0  0  0  0
 36 43  1  0  0  0  0
 42 43  1  0  0  0  0
 41 42  2  0  0  0  0
 40 41  1  0  0  0  0
 38 40  2  0  0  0  0
 36 38  1  0  0  0  0
 44 45  2  0  0  0  0
 45 46  1  0  0  0  0
 16 46  2  0  0  0  0
 20 44  1  0  0  0  0
 47 48  2  0  0  0  0
 46 47  1  0  0  0  0
 48  5  1  0  0  0  0
 49 50  2  0  0  0  0
 50 51  1  0  0  0  0
  6 51  2  0  0  0  0
 10 49  1  0  0  0  0
 52 53  1  0  0  0  0
 53 54  2  0  0  0  0
 54 55  1  0  0  0  0
 24 52  1  0  0  0  0
 25 55  2  0  0  0  0
 56 57  1  0  0  0  0
 57 52  2  0  0  0  0
 62 63  1  0  0  0  0
 63 64  2  0  0  0  0
 64 65  1  0  0  0  0
 43 65  2  0  0  0  0
 61 58  2  0  0  0  0
 31 61  1  0  0  0  0
 60 56  1  0  0  0  0
 59 60  2  0  0  0  0
 58 59  1  0  0  0  0
 27 58  1  0  0  0  0
 28 56  2  0  0  0  0
 68 41  1  0  0  0  0
 67 68  2  0  0  0  0
 66 67  1  0  0  0  0
 62 66  2  0  0  0  0
 42 62  1  0  0  0  0
 63 69  1  0  0  0  0
  8 70  1  0  0  0  0
  9 71  1  0  0  0  0
 19 72  1  0  0  0  0
 34 73  1  0  0  0  0
 35 74  1  0  0  0  0
 40 75  1  0  0  0  0
 44 76  1  0  0  0  0
 45 77  1  0  0  0  0
 47 78  1  0  0  0  0
 48 79  1  0  0  0  0
 49 80  1  0  0  0  0
 50 81  1  0  0  0  0
 51 82  1  0  0  0  0
 53 83  1  0  0  0  0
 54 84  1  0  0  0  0
 55 85  1  0  0  0  0
 57 86  1  0  0  0  0
 59 87  1  0  0  0  0
 60 88  1  0  0  0  0
 61 89  1  0  0  0  0
 64 90  1  0  0  0  0
 65 91  1  0  0  0  0
 66 92  1  0  0  0  0
 67 93  1  0  0  0  0
 68 94  1  0  0  0  0
 69 95  1  0  0  0  0
M  END
