
  Mrv2101 10312211453D          

384514  0  0  0  0            999 V2000
  -17.8721   18.7999   -0.3144 C   0  0  0  0  0  0  0  0  0  0  0  0
  -19.1419   18.2226    0.0842 C   0  0  0  0  0  0  0  0  0  0  0  0
  -20.3070   19.0047    0.4152 C   0  0  0  0  0  0  0  0  0  0  0  0
  -20.1538   20.4110    0.2562 C   0  0  0  0  0  0  0  0  0  0  0  0
  -18.9670   21.0036   -0.1746 C   0  0  0  0  0  0  0  0  0  0  0  0
  -17.8534   20.2124   -0.4551 C   0  0  0  0  0  0  0  0  0  0  0  0
  -19.1766   16.8246    0.1030 C   0  0  0  0  0  0  0  0  0  0  0  0
  -18.0239   16.0738   -0.2432 C   0  0  0  0  0  0  0  0  0  0  0  0
  -16.7227   16.5452   -0.5091 C   0  0  0  0  0  0  0  0  0  0  0  0
  -16.6884   17.9832   -0.5601 C   0  0  0  0  0  0  0  0  0  0  0  0
  -15.5375   15.6976   -0.6797 C   0  0  0  0  0  0  0  0  0  0  0  0
  -14.3056   16.3655   -0.9325 C   0  0  0  0  0  0  0  0  0  0  0  0
  -14.2679   17.7673   -1.0428 C   0  0  0  0  0  0  0  0  0  0  0  0
  -15.4180   18.5426   -0.8549 C   0  0  0  0  0  0  0  0  0  0  0  0
  -15.4173   14.2495   -0.6054 C   0  0  0  0  0  0  0  0  0  0  0  0
  -14.1889   13.4918   -0.5448 C   0  0  0  0  0  0  0  0  0  0  0  0
  -14.1686   12.0623   -0.1528 C   0  0  0  0  0  0  0  0  0  0  0  0
  -15.3926   11.2916   -0.1260 C   0  0  0  0  0  0  0  0  0  0  0  0
  -16.4544   12.0351   -0.3958 C   0  0  0  0  0  0  0  0  0  0  0  0
  -16.5033   13.3926   -0.5645 C   0  0  0  0  0  0  0  0  0  0  0  0
  -16.0214   10.0187    0.1807 C   0  0  0  0  0  0  0  0  0  0  0  0
  -15.1395    8.9592    0.5114 C   0  0  0  0  0  0  0  0  0  0  0  0
  -15.7641    7.7070    0.6819 C   0  0  0  0  0  0  0  0  0  0  0  0
  -18.7778    9.2088    0.2568 C   0  0  0  0  0  0  0  0  0  0  0  0
  -17.5253   10.0334    0.1133 C   0  0  0  0  0  0  0  0  0  0  0  0
  -21.4706    9.1732   -0.1577 C   0  0  0  0  0  0  0  0  0  0  0  0
  -22.8264    9.6429   -0.4236 C   0  0  0  0  0  0  0  0  0  0  0  0
  -23.6114    8.7311   -1.1509 C   0  0  0  0  0  0  0  0  0  0  0  0
  -22.9864    7.5656   -1.0066 C   0  0  0  0  0  0  0  0  0  0  0  0
  -21.6883    7.8186   -0.4010 C   0  0  0  0  0  0  0  0  0  0  0  0
  -23.6357    6.3236   -1.2754 C   0  0  0  0  0  0  0  0  0  0  0  0
  -24.8330    5.8528   -1.9917 C   0  0  0  0  0  0  0  0  0  0  0  0
  -24.8226    4.4267   -2.1882 C   0  0  0  0  0  0  0  0  0  0  0  0
  -23.8955    3.5050   -1.7402 C   0  0  0  0  0  0  0  0  0  0  0  0
  -23.0035    4.0584   -0.9053 C   0  0  0  0  0  0  0  0  0  0  0  0
  -22.8254    5.3811   -0.6798 C   0  0  0  0  0  0  0  0  0  0  0  0
  -20.2362   15.9514    0.4282 C   0  0  0  0  0  0  0  0  0  0  0  0
  -19.7107   14.7266    0.1977 C   0  0  0  0  0  0  0  0  0  0  0  0
  -18.4356   14.7786   -0.2379 C   0  0  0  0  0  0  0  0  0  0  0  0
  -21.9239    3.4003   -0.5515 C   0  0  0  0  0  0  0  0  0  0  0  0
  -21.0730    4.3298   -0.0409 C   0  0  0  0  0  0  0  0  0  0  0  0
  -21.5793    5.5697   -0.1206 C   0  0  0  0  0  0  0  0  0  0  0  0
  -25.5368    3.5166   -2.8713 C   0  0  0  0  0  0  0  0  0  0  0  0
  -24.9781    2.2313   -2.9626 C   0  0  0  0  0  0  0  0  0  0  0  0
  -23.7786    2.1594   -2.1946 C   0  0  0  0  0  0  0  0  0  0  0  0
  -24.8699    8.9068   -1.7579 C   0  0  0  0  0  0  0  0  0  0  0  0
  -25.5051   10.1122   -1.4029 C   0  0  0  0  0  0  0  0  0  0  0  0
  -24.9126   10.9997   -0.4842 C   0  0  0  0  0  0  0  0  0  0  0  0
  -23.5887   10.7598    0.0051 C   0  0  0  0  0  0  0  0  0  0  0  0
  -12.9946   11.4661    0.3360 C   0  0  0  0  0  0  0  0  0  0  0  0
  -13.0493   14.2562   -0.9018 C   0  0  0  0  0  0  0  0  0  0  0  0
  -12.7980   10.1193    0.6455 C   0  0  0  0  0  0  0  0  0  0  0  0
  -13.6768    9.0061    0.6467 C   0  0  0  0  0  0  0  0  0  0  0  0
  -20.2083    9.8235    0.2257 C   0  0  0  0  0  0  0  0  0  0  0  0
  -23.0823   11.6526    0.9336 C   0  0  0  0  0  0  0  0  0  0  0  0
  -20.5787   11.2330    0.4631 C   0  0  0  0  0  0  0  0  0  0  0  0
  -21.7544   12.0260    0.8416 C   0  0  0  0  0  0  0  0  0  0  0  0
  -25.4731    8.0355   -2.7189 C   0  0  0  0  0  0  0  0  0  0  0  0
  -25.8627    6.6504   -2.6138 C   0  0  0  0  0  0  0  0  0  0  0  0
  -17.8196   13.5816   -0.4456 C   0  0  0  0  0  0  0  0  0  0  0  0
  -21.5937   18.5431    0.8826 C   0  0  0  0  0  0  0  0  0  0  0  0
  -21.5678   15.9827    0.8969 C   0  0  0  0  0  0  0  0  0  0  0  0
  -22.1423   17.2476    1.1019 C   0  0  0  0  0  0  0  0  0  0  0  0
  -21.6268    2.1616   -1.0551 C   0  0  0  0  0  0  0  0  0  0  0  0
  -22.5890    1.3578   -1.7913 C   0  0  0  0  0  0  0  0  0  0  0  0
  -20.3429   13.5239    0.4278 C   0  0  0  0  0  0  0  0  0  0  0  0
  -21.5905   13.4475    0.8934 C   0  0  0  0  0  0  0  0  0  0  0  0
  -22.2565   14.7099    1.1299 C   0  0  0  0  0  0  0  0  0  0  0  0
  -18.4791   12.3637   -0.2373 C   0  0  0  0  0  0  0  0  0  0  0  0
  -17.5966   11.3605   -0.2214 C   0  0  0  0  0  0  0  0  0  0  0  0
  -13.0984   15.6469   -1.0873 C   0  0  0  0  0  0  0  0  0  0  0  0
  -20.8342    6.7541   -0.0353 C   0  0  0  0  0  0  0  0  0  0  0  0
  -19.4290    6.6429    0.2888 C   0  0  0  0  0  0  0  0  0  0  0  0
  -19.7624   12.3016    0.2010 C   0  0  0  0  0  0  0  0  0  0  0  0
  -21.8767   -9.1432    4.8382 C   0  0  0  0  0  0  0  0  0  0  0  0
  -20.6110   -9.2166    4.1493 C   0  0  0  0  0  0  0  0  0  0  0  0
  -19.9595  -10.4545    3.9204 C   0  0  0  0  0  0  0  0  0  0  0  0
  -20.2835  -11.4816    4.8529 C   0  0  0  0  0  0  0  0  0  0  0  0
  -21.3656  -11.3682    5.7424 C   0  0  0  0  0  0  0  0  0  0  0  0
  -22.1951  -10.2373    5.6792 C   0  0  0  0  0  0  0  0  0  0  0  0
  -20.0855   -8.0263    3.6497 C   0  0  0  0  0  0  0  0  0  0  0  0
  -20.9195   -6.9193    3.5653 C   0  0  0  0  0  0  0  0  0  0  0  0
  -22.3049   -6.9533    3.7725 C   0  0  0  0  0  0  0  0  0  0  0  0
  -22.7723   -8.0347    4.5824 C   0  0  0  0  0  0  0  0  0  0  0  0
  -23.2892   -6.0607    3.1349 C   0  0  0  0  0  0  0  0  0  0  0  0
  -24.7363   -6.1777    3.5017 C   0  0  0  0  0  0  0  0  0  0  0  0
  -25.1230   -7.1131    4.5225 C   0  0  0  0  0  0  0  0  0  0  0  0
  -24.1359   -8.0031    5.0118 C   0  0  0  0  0  0  0  0  0  0  0  0
  -22.8835   -5.1358    2.0525 C   0  0  0  0  0  0  0  0  0  0  0  0
  -23.8840   -4.4491    1.3349 C   0  0  0  0  0  0  0  0  0  0  0  0
  -23.6599   -3.5966    0.2421 C   0  0  0  0  0  0  0  0  0  0  0  0
  -22.3503   -3.3976   -0.2768 C   0  0  0  0  0  0  0  0  0  0  0  0
  -21.3344   -4.1377    0.3919 C   0  0  0  0  0  0  0  0  0  0  0  0
  -21.6156   -4.8356    1.5388 C   0  0  0  0  0  0  0  0  0  0  0  0
  -21.9166   -2.4320   -1.2252 C   0  0  0  0  0  0  0  0  0  0  0  0
  -22.7421   -1.2878   -1.6348 C   0  0  0  0  0  0  0  0  0  0  0  0
  -22.0822   -0.0204   -1.8919 C   0  0  0  0  0  0  0  0  0  0  0  0
  -20.6599   -0.1553   -1.8665 C   0  0  0  0  0  0  0  0  0  0  0  0
  -19.8834   -1.2672   -1.7754 C   0  0  0  0  0  0  0  0  0  0  0  0
  -20.4772   -2.4744   -1.4631 C   0  0  0  0  0  0  0  0  0  0  0  0
  -18.5543   -0.9616   -1.4333 C   0  0  0  0  0  0  0  0  0  0  0  0
  -17.6493   -1.9252   -1.0600 C   0  0  0  0  0  0  0  0  0  0  0  0
  -18.1132   -3.2183   -1.0544 C   0  0  0  0  0  0  0  0  0  0  0  0
  -19.5134   -3.4257   -0.9519 C   0  0  0  0  0  0  0  0  0  0  0  0
  -16.3819   -1.8436   -0.4933 C   0  0  0  0  0  0  0  0  0  0  0  0
  -15.9798   -3.1851   -0.3081 C   0  0  0  0  0  0  0  0  0  0  0  0
  -14.7466   -3.5382    0.3018 C   0  0  0  0  0  0  0  0  0  0  0  0
  -13.8038   -2.3967    0.4104 C   0  0  0  0  0  0  0  0  0  0  0  0
  -14.2522   -0.9970    0.1878 C   0  0  0  0  0  0  0  0  0  0  0  0
  -15.6240   -0.6935   -0.1333 C   0  0  0  0  0  0  0  0  0  0  0  0
  -13.3664    0.1535    0.1854 C   0  0  0  0  0  0  0  0  0  0  0  0
  -12.9220    5.2898    0.7593 O   0  0  0  0  0  0  0  0  0  0  0  0
  -13.6211    4.0789    0.6509 C   0  0  0  0  0  0  0  0  0  0  0  0
  -13.8531    1.5433    0.2505 C   0  0  0  0  0  0  0  0  0  0  0  0
  -18.8892   -7.7265    2.9687 C   0  0  0  0  0  0  0  0  0  0  0  0
  -18.8864   -6.3896    2.6390 C   0  0  0  0  0  0  0  0  0  0  0  0
  -20.1328   -6.0350    2.9067 C   0  0  0  0  0  0  0  0  0  0  0  0
  -18.4709    0.3490   -1.1167 C   0  0  0  0  0  0  0  0  0  0  0  0
  -19.7695    0.7680   -1.3813 C   0  0  0  0  0  0  0  0  0  0  0  0
  -14.9939    4.1657    0.7641 C   0  0  0  0  0  0  0  0  0  0  0  0
  -15.8128    3.0597    0.5256 C   0  0  0  0  0  0  0  0  0  0  0  0
  -15.2738    1.7410    0.2780 C   0  0  0  0  0  0  0  0  0  0  0  0
  -12.9192    7.7893    0.7987 C   0  0  0  0  0  0  0  0  0  0  0  0
  -13.5192    6.5409    0.8364 C   0  0  0  0  0  0  0  0  0  0  0  0
  -12.4007   -2.6453    0.7149 C   0  0  0  0  0  0  0  0  0  0  0  0
  -12.0377   -4.0227    1.0881 C   0  0  0  0  0  0  0  0  0  0  0  0
  -14.4836   -4.9475    0.6379 C   0  0  0  0  0  0  0  0  0  0  0  0
  -24.9074   -3.0821   -0.1001 C   0  0  0  0  0  0  0  0  0  0  0  0
  -25.8780   -3.6884    0.7283 C   0  0  0  0  0  0  0  0  0  0  0  0
  -25.2282   -4.5216    1.6301 C   0  0  0  0  0  0  0  0  0  0  0  0
  -25.1424   -2.0814   -1.0456 C   0  0  0  0  0  0  0  0  0  0  0  0
  -24.1631   -1.2410   -1.6089 C   0  0  0  0  0  0  0  0  0  0  0  0
  -16.9980   -3.9987   -0.8540 C   0  0  0  0  0  0  0  0  0  0  0  0
  -15.4546   -6.1241    0.7701 C   0  0  0  0  0  0  0  0  0  0  0  0
  -20.3802   -5.1728    1.9478 C   0  0  0  0  0  0  0  0  0  0  0  0
  -19.1673  -10.7439    2.7503 C   0  0  0  0  0  0  0  0  0  0  0  0
  -18.0151   -8.5115    2.2297 C   0  0  0  0  0  0  0  0  0  0  0  0
  -18.2220   -9.9170    2.0400 C   0  0  0  0  0  0  0  0  0  0  0  0
  -15.5426    5.4563    0.8548 C   0  0  0  0  0  0  0  0  0  0  0  0
  -14.8952    6.6171    0.8430 C   0  0  0  0  0  0  0  0  0  0  0  0
  -18.1343   -5.7135    1.6471 C   0  0  0  0  0  0  0  0  0  0  0  0
  -16.8443   -6.3335    1.2936 C   0  0  0  0  0  0  0  0  0  0  0  0
  -17.0412   -7.7498    1.4810 C   0  0  0  0  0  0  0  0  0  0  0  0
  -19.2763   -4.9547    1.1345 C   0  0  0  0  0  0  0  0  0  0  0  0
  -19.9441   -4.2072    0.1153 C   0  0  0  0  0  0  0  0  0  0  0  0
  -25.5912   -5.3686    2.7065 O   0  0  0  0  0  0  0  0  0  0  0  0
  -16.1528    0.6661   -0.0943 C   0  0  0  0  0  0  0  0  0  0  0  0
  -17.4955    1.0946   -0.4214 C   0  0  0  0  0  0  0  0  0  0  0  0
  -19.7594    4.0970    0.1007 C   0  0  0  0  0  0  0  0  0  0  0  0
  -18.9692    5.2303    0.3545 C   0  0  0  0  0  0  0  0  0  0  0  0
  -17.6703    4.7765    0.5356 C   0  0  0  0  0  0  0  0  0  0  0  0
  -16.8349    5.8355    0.7183 C   0  0  0  0  0  0  0  0  0  0  0  0
  -17.1698    3.4101    0.3990 C   0  0  0  0  0  0  0  0  0  0  0  0
  -17.9903    2.3954   -0.0689 C   0  0  0  0  0  0  0  0  0  0  0  0
  -19.3304    2.7884   -0.2354 C   0  0  0  0  0  0  0  0  0  0  0  0
  -20.2521    1.9193   -0.8685 C   0  0  0  0  0  0  0  0  0  0  0  0
  -27.1719    6.1706   -3.1370 C   0  0  0  0  0  0  0  0  0  0  0  0
  -27.6414    4.7935   -3.3457 C   0  0  0  0  0  0  0  0  0  0  0  0
  -26.7627    3.6879   -3.3972 C   0  0  0  0  0  0  0  0  0  0  0  0
  -28.1181    7.1739   -3.5526 C   0  0  0  0  0  0  0  0  0  0  0  0
  -25.4942    8.6573   -3.9822 C   0  0  0  0  0  0  0  0  0  0  0  0
  -26.6328    8.8083   -4.7548 C   0  0  0  0  0  0  0  0  0  0  0  0
  -27.8560    8.3442   -4.2919 C   0  0  0  0  0  0  0  0  0  0  0  0
  -30.3735    6.2693   -2.8621 C   0  0  0  0  0  0  0  0  0  0  0  0
  -30.1510    4.9132   -3.0453 C   0  0  0  0  0  0  0  0  0  0  0  0
  -28.9875    4.2830   -3.5363 C   0  0  0  0  0  0  0  0  0  0  0  0
  -29.2505    2.9936   -4.1316 C   0  0  0  0  0  0  0  0  0  0  0  0
  -28.2365    2.0377   -4.4131 C   0  0  0  0  0  0  0  0  0  0  0  0
  -26.9937    2.4101   -3.9009 C   0  0  0  0  0  0  0  0  0  0  0  0
  -25.8800    1.5589   -3.8037 C   0  0  0  0  0  0  0  0  0  0  0  0
  -25.8975    0.3390   -4.5054 C   0  0  0  0  0  0  0  0  0  0  0  0
  -27.1309   -0.0754   -5.1062 C   0  0  0  0  0  0  0  0  0  0  0  0
  -28.3132    0.7564   -5.0553 C   0  0  0  0  0  0  0  0  0  0  0  0
  -29.4924    0.2551   -5.6791 C   0  0  0  0  0  0  0  0  0  0  0  0
  -29.5115   -1.0090   -6.2981 C   0  0  0  0  0  0  0  0  0  0  0  0
  -28.3608   -1.8051   -6.3380 C   0  0  0  0  0  0  0  0  0  0  0  0
  -27.1617   -1.3436   -5.7641 C   0  0  0  0  0  0  0  0  0  0  0  0
  -25.9967   -2.1384   -5.8497 C   0  0  0  0  0  0  0  0  0  0  0  0
  -24.7830   -1.6760   -5.3206 C   0  0  0  0  0  0  0  0  0  0  0  0
  -24.7275   -0.4331   -4.6747 C   0  0  0  0  0  0  0  0  0  0  0  0
  -17.4253  -10.5225    1.0115 C   0  0  0  0  0  0  0  0  0  0  0  0
  -17.6818  -11.8648    0.5695 C   0  0  0  0  0  0  0  0  0  0  0  0
  -18.7774  -12.6045    1.0821 C   0  0  0  0  0  0  0  0  0  0  0  0
  -19.4635  -12.0065    2.1623 C   0  0  0  0  0  0  0  0  0  0  0  0
  -16.7698  -12.4241   -0.3406 C   0  0  0  0  0  0  0  0  0  0  0  0
  -15.5890  -11.7201   -0.6806 C   0  0  0  0  0  0  0  0  0  0  0  0
  -15.2993  -10.4031   -0.2924 C   0  0  0  0  0  0  0  0  0  0  0  0
  -16.3220   -9.7894    0.4566 C   0  0  0  0  0  0  0  0  0  0  0  0
  -14.0511   -9.7238   -0.4018 C   0  0  0  0  0  0  0  0  0  0  0  0
  -14.0533   -8.2944   -0.0148 C   0  0  0  0  0  0  0  0  0  0  0  0
  -15.1640   -7.5186    0.4054 C   0  0  0  0  0  0  0  0  0  0  0  0
  -16.1706   -8.4145    0.7229 C   0  0  0  0  0  0  0  0  0  0  0  0
  -12.7972  -10.4651   -0.5566 C   0  0  0  0  0  0  0  0  0  0  0  0
  -11.6602   -9.8952    0.0126 C   0  0  0  0  0  0  0  0  0  0  0  0
  -10.4129  -10.5689    0.2276 C   0  0  0  0  0  0  0  0  0  0  0  0
  -10.1251  -11.8584   -0.3330 C   0  0  0  0  0  0  0  0  0  0  0  0
  -11.2240  -12.4745   -0.9837 C   0  0  0  0  0  0  0  0  0  0  0  0
  -12.4764  -11.7768   -1.0181 C   0  0  0  0  0  0  0  0  0  0  0  0
  -10.7313  -16.2094   -2.1486 C   0  0  0  0  0  0  0  0  0  0  0  0
  -10.3909  -14.8495   -1.7272 C   0  0  0  0  0  0  0  0  0  0  0  0
  -12.0503  -18.3555   -2.4516 C   0  0  0  0  0  0  0  0  0  0  0  0
  -16.7136  -13.7288   -0.8578 C   0  0  0  0  0  0  0  0  0  0  0  0
  -15.4678  -13.7779   -1.4155 C   0  0  0  0  0  0  0  0  0  0  0  0
  -14.7503  -12.6290   -1.2753 C   0  0  0  0  0  0  0  0  0  0  0  0
  -11.8180   -8.5844    0.4513 C   0  0  0  0  0  0  0  0  0  0  0  0
  -11.9729  -16.9375   -2.2463 C   0  0  0  0  0  0  0  0  0  0  0  0
  -14.4953  -18.4424   -2.2001 C   0  0  0  0  0  0  0  0  0  0  0  0
  -13.2440  -16.3569   -2.1122 C   0  0  0  0  0  0  0  0  0  0  0  0
  -14.4851  -17.0513   -2.0509 C   0  0  0  0  0  0  0  0  0  0  0  0
  -13.3702  -12.7002   -1.4325 C   0  0  0  0  0  0  0  0  0  0  0  0
  -19.2592  -13.8904    0.6771 C   0  0  0  0  0  0  0  0  0  0  0  0
  -17.4766  -14.9246   -0.7936 C   0  0  0  0  0  0  0  0  0  0  0  0
  -18.7211  -14.9147   -0.1384 C   0  0  0  0  0  0  0  0  0  0  0  0
  -14.8686  -14.9537   -1.7847 C   0  0  0  0  0  0  0  0  0  0  0  0
  -15.5247  -16.1511   -1.7476 C   0  0  0  0  0  0  0  0  0  0  0  0
  -16.8855  -16.1425   -1.3236 C   0  0  0  0  0  0  0  0  0  0  0  0
  -12.7106  -13.9006   -1.7233 C   0  0  0  0  0  0  0  0  0  0  0  0
  -11.3392  -13.7969   -1.5097 C   0  0  0  0  0  0  0  0  0  0  0  0
  -12.8706   -7.6992    0.3558 C   0  0  0  0  0  0  0  0  0  0  0  0
  -13.5058  -15.0278   -1.9486 C   0  0  0  0  0  0  0  0  0  0  0  0
  -13.2644  -19.0885   -2.4265 C   0  0  0  0  0  0  0  0  0  0  0  0
  -29.5146    7.2337   -3.3722 C   0  0  0  0  0  0  0  0  0  0  0  0
  -29.0096    9.0863   -4.5083 C   0  0  0  0  0  0  0  0  0  0  0  0
  -30.0346    8.4304   -3.8719 C   0  0  0  0  0  0  0  0  0  0  0  0
  -12.5034   -6.4229    0.8447 C   0  0  0  0  0  0  0  0  0  0  0  0
  -13.0489   -5.1045    0.8762 C   0  0  0  0  0  0  0  0  0  0  0  0
  -25.5938   12.0032   -0.1617 O   0  0  0  0  0  0  0  0  0  0  0  0
  -11.9914   12.1761    0.5979 O   0  0  0  0  0  0  0  0  0  0  0  0
  -23.4458   14.6999    1.5196 O   0  0  0  0  0  0  0  0  0  0  0  0
  -21.6236  -12.2932    6.5463 O   0  0  0  0  0  0  0  0  0  0  0  0
  -26.3395   -1.8311   -1.3272 O   0  0  0  0  0  0  0  0  0  0  0  0
  -16.9996   -5.1954   -1.2124 O   0  0  0  0  0  0  0  0  0  0  0  0
   -9.7721  -16.9605   -2.4603 O   0  0  0  0  0  0  0  0  0  0  0  0
  -19.4145  -15.9594   -0.2190 O   0  0  0  0  0  0  0  0  0  0  0  0
  -31.2180    8.8405   -3.8260 O   0  0  0  0  0  0  0  0  0  0  0  0
  -17.1093    7.2245    0.6102 C   0  0  0  0  0  0  0  0  0  0  0  0
  -18.4675    7.7557    0.3900 C   0  0  0  0  0  0  0  0  0  0  0  0
  -11.9930   -0.1967    0.0679 C   0  0  0  0  0  0  0  0  0  0  0  0
  -11.4750   -1.5172    0.4881 C   0  0  0  0  0  0  0  0  0  0  0  0
  -11.1111    0.7650   -0.5382 C   0  0  0  0  0  0  0  0  0  0  0  0
   -9.8215    0.4137   -0.7256 C   0  0  0  0  0  0  0  0  0  0  0  0
  -10.0149   -1.5673    0.6014 C   0  0  0  0  0  0  0  0  0  0  0  0
   -9.1952   -0.6290   -0.0757 C   0  0  0  0  0  0  0  0  0  0  0  0
   -9.1297    1.4226   -1.3281 C   0  0  0  0  0  0  0  0  0  0  0  0
  -11.0462    2.1385   -0.9311 C   0  0  0  0  0  0  0  0  0  0  0  0
   -9.7982    2.5838   -1.4704 C   0  0  0  0  0  0  0  0  0  0  0  0
   -7.7819    1.4044   -1.3431 C   0  0  0  0  0  0  0  0  0  0  0  0
   -7.0892    0.4645   -0.7033 C   0  0  0  0  0  0  0  0  0  0  0  0
   -7.7579   -0.5444   -0.0266 C   0  0  0  0  0  0  0  0  0  0  0  0
   -6.9392   -1.3252    0.7719 C   0  0  0  0  0  0  0  0  0  0  0  0
   -9.1638   -2.4401    1.3142 C   0  0  0  0  0  0  0  0  0  0  0  0
   -7.7334   -2.2847    1.4298 C   0  0  0  0  0  0  0  0  0  0  0  0
   -5.5031   -1.1113    0.7229 C   0  0  0  0  0  0  0  0  0  0  0  0
   -4.8808    0.0207    0.0717 C   0  0  0  0  0  0  0  0  0  0  0  0
   -5.7733    0.8554   -0.5976 C   0  0  0  0  0  0  0  0  0  0  0  0
  -13.1182    2.8149    0.2038 C   0  0  0  0  0  0  0  0  0  0  0  0
  -11.9536    3.0674   -0.5263 C   0  0  0  0  0  0  0  0  0  0  0  0
   -9.0358    3.7824   -1.8015 C   0  0  0  0  0  0  0  0  0  0  0  0
   -7.5735    3.7296   -1.8016 C   0  0  0  0  0  0  0  0  0  0  0  0
   -7.0106    2.4797   -1.5365 C   0  0  0  0  0  0  0  0  0  0  0  0
   -5.7201    2.1396   -1.1406 C   0  0  0  0  0  0  0  0  0  0  0  0
   -4.7139    3.0935   -1.1612 C   0  0  0  0  0  0  0  0  0  0  0  0
   -5.1595    4.4033   -1.5742 C   0  0  0  0  0  0  0  0  0  0  0  0
   -6.5430    4.7142   -1.8691 C   0  0  0  0  0  0  0  0  0  0  0  0
   -3.3916    2.7265   -0.7830 C   0  0  0  0  0  0  0  0  0  0  0  0
   -2.8186    1.4707   -0.3419 C   0  0  0  0  0  0  0  0  0  0  0  0
   -3.4640    0.2387    0.0398 C   0  0  0  0  0  0  0  0  0  0  0  0
  -10.7032   -4.4216    1.6165 C   0  0  0  0  0  0  0  0  0  0  0  0
   -9.5079   -3.6722    1.8177 C   0  0  0  0  0  0  0  0  0  0  0  0
  -10.3414   -5.7930    1.8332 C   0  0  0  0  0  0  0  0  0  0  0  0
  -11.2490   -6.6857    1.3462 C   0  0  0  0  0  0  0  0  0  0  0  0
   -9.0529   -6.3622    2.2135 C   0  0  0  0  0  0  0  0  0  0  0  0
   -7.9590   -5.5481    2.4431 C   0  0  0  0  0  0  0  0  0  0  0  0
   -8.2635   -4.2021    2.2531 C   0  0  0  0  0  0  0  0  0  0  0  0
   -7.2068   -3.3677    2.0610 C   0  0  0  0  0  0  0  0  0  0  0  0
   -5.8968   -3.8421    2.1135 C   0  0  0  0  0  0  0  0  0  0  0  0
   -4.7701   -3.2870    1.6847 C   0  0  0  0  0  0  0  0  0  0  0  0
   -4.5940   -2.0675    1.1479 C   0  0  0  0  0  0  0  0  0  0  0  0
   -3.2589   -2.0647    0.8905 C   0  0  0  0  0  0  0  0  0  0  0  0
   -2.6536   -0.9053    0.4013 C   0  0  0  0  0  0  0  0  0  0  0  0
   -3.7169   -4.1621    1.5778 C   0  0  0  0  0  0  0  0  0  0  0  0
   -2.6883   -3.3354    1.1093 C   0  0  0  0  0  0  0  0  0  0  0  0
   -6.5942   -6.0327    2.4360 C   0  0  0  0  0  0  0  0  0  0  0  0
   -5.5301   -5.1580    2.2514 C   0  0  0  0  0  0  0  0  0  0  0  0
   -8.7201   -7.7340    2.0527 C   0  0  0  0  0  0  0  0  0  0  0  0
   -7.3969   -8.2329    2.1591 C   0  0  0  0  0  0  0  0  0  0  0  0
   -6.2442   -7.3684    2.2782 C   0  0  0  0  0  0  0  0  0  0  0  0
   -4.8527   -7.7564    2.0000 C   0  0  0  0  0  0  0  0  0  0  0  0
   -3.7264   -6.8336    1.6679 C   0  0  0  0  0  0  0  0  0  0  0  0
   -4.1830   -5.4697    1.8676 C   0  0  0  0  0  0  0  0  0  0  0  0
  -10.8753   -7.9781    1.1543 C   0  0  0  0  0  0  0  0  0  0  0  0
   -9.6833   -8.5693    1.4763 C   0  0  0  0  0  0  0  0  0  0  0  0
   -1.3520   -3.5256    0.7735 C   0  0  0  0  0  0  0  0  0  0  0  0
   -0.6116   -2.2913    0.4604 C   0  0  0  0  0  0  0  0  0  0  0  0
   -1.2451   -0.9831    0.3135 C   0  0  0  0  0  0  0  0  0  0  0  0
   -0.7927   -4.8514    0.6784 C   0  0  0  0  0  0  0  0  0  0  0  0
   -1.2488   -6.2501    0.7467 C   0  0  0  0  0  0  0  0  0  0  0  0
   -2.3897   -7.1870    1.0754 C   0  0  0  0  0  0  0  0  0  0  0  0
   -1.3995    1.4496   -0.2426 C   0  0  0  0  0  0  0  0  0  0  0  0
   -0.6436    0.2901    0.0640 C   0  0  0  0  0  0  0  0  0  0  0  0
    0.5806   -4.8025    0.2933 C   0  0  0  0  0  0  0  0  0  0  0  0
    0.7736   -2.4247    0.2243 C   0  0  0  0  0  0  0  0  0  0  0  0
    1.3792   -3.6668    0.1449 C   0  0  0  0  0  0  0  0  0  0  0  0
    1.0450   -6.0377   -0.0532 C   0  0  0  0  0  0  0  0  0  0  0  0
   -0.0566   -6.8161    0.2133 C   0  0  0  0  0  0  0  0  0  0  0  0
    0.1031   -8.1218   -0.1720 C   0  0  0  0  0  0  0  0  0  0  0  0
   -0.8905   -8.9860    0.0085 C   0  0  0  0  0  0  0  0  0  0  0  0
   -2.0748   -8.5989    0.6694 C   0  0  0  0  0  0  0  0  0  0  0  0
   -2.7463   -9.8418    0.7481 C   0  0  0  0  0  0  0  0  0  0  0  0
   -4.8237   -9.1570    1.9073 C   0  0  0  0  0  0  0  0  0  0  0  0
   -3.8881   -9.9848    1.3949 C   0  0  0  0  0  0  0  0  0  0  0  0
   -2.5158  -11.1213    0.0838 C   0  0  0  0  0  0  0  0  0  0  0  0
   -1.3279  -11.2735   -0.5862 O   0  0  0  0  0  0  0  0  0  0  0  0
   -0.4692  -10.2011   -0.5739 C   0  0  0  0  0  0  0  0  0  0  0  0
   -9.4528   -9.8831    1.0115 C   0  0  0  0  0  0  0  0  0  0  0  0
   -8.1991  -10.4324    1.2235 C   0  0  0  0  0  0  0  0  0  0  0  0
   -7.2232   -9.5913    1.8468 C   0  0  0  0  0  0  0  0  0  0  0  0
   -5.9293  -10.0176    1.8675 C   0  0  0  0  0  0  0  0  0  0  0  0
   -7.8670  -11.6786    0.5966 C   0  0  0  0  0  0  0  0  0  0  0  0
   -8.8020  -12.4035   -0.2030 C   0  0  0  0  0  0  0  0  0  0  0  0
   -6.5070  -12.0654    0.6311 C   0  0  0  0  0  0  0  0  0  0  0  0
   -5.6503  -11.2385    1.3286 C   0  0  0  0  0  0  0  0  0  0  0  0
   -4.3527  -11.1949    1.0716 C   0  0  0  0  0  0  0  0  0  0  0  0
   -3.6891  -11.9422    0.1624 C   0  0  0  0  0  0  0  0  0  0  0  0
   -5.9217  -13.0240   -0.2295 C   0  0  0  0  0  0  0  0  0  0  0  0
   -4.4682  -13.0123   -0.4301 C   0  0  0  0  0  0  0  0  0  0  0  0
   -8.2750  -13.5635   -0.8561 C   0  0  0  0  0  0  0  0  0  0  0  0
   -6.8873  -13.7663   -0.8746 O   0  0  0  0  0  0  0  0  0  0  0  0
    0.5904    0.4935    0.1190 O   0  0  0  0  0  0  0  0  0  0  0  0
   -8.9961  -14.5853   -1.5160 C   0  0  0  0  0  0  0  0  0  0  0  0
    1.1937   -8.6973   -0.8064 C   0  0  0  0  0  0  0  0  0  0  0  0
    0.8298  -10.0231   -1.0776 C   0  0  0  0  0  0  0  0  0  0  0  0
    2.3215   -7.8834   -1.0388 C   0  0  0  0  0  0  0  0  0  0  0  0
    2.2516   -6.5214   -0.6415 C   0  0  0  0  0  0  0  0  0  0  0  0
  -22.4565   19.4111    1.1759 O   0  0  0  0  0  0  0  0  0  0  0  0
  -30.5704    0.8894   -5.7386 O   0  0  0  0  0  0  0  0  0  0  0  0
  -20.9221   21.0579    0.4462 H   0  0  0  0  0  0  0  0  0  0  0  0
  -18.9129   22.0196   -0.2808 H   0  0  0  0  0  0  0  0  0  0  0  0
  -17.0346   20.7216   -0.7761 H   0  0  0  0  0  0  0  0  0  0  0  0
  -13.3886   18.2502   -1.2524 H   0  0  0  0  0  0  0  0  0  0  0  0
  -15.2751   19.5456   -0.9320 H   0  0  0  0  0  0  0  0  0  0  0  0
  -26.4294   10.3267   -1.7914 H   0  0  0  0  0  0  0  0  0  0  0  0
  -12.1445   13.8135   -1.0644 H   0  0  0  0  0  0  0  0  0  0  0  0
  -11.8190    9.9344    0.9159 H   0  0  0  0  0  0  0  0  0  0  0  0
  -23.7349   12.2058    1.5010 H   0  0  0  0  0  0  0  0  0  0  0  0
  -23.1067   17.2112    1.4526 H   0  0  0  0  0  0  0  0  0  0  0  0
  -12.2283   16.1331   -1.3296 H   0  0  0  0  0  0  0  0  0  0  0  0
  -19.7464  -12.3553    4.8622 H   0  0  0  0  0  0  0  0  0  0  0  0
  -23.0295  -10.2319    6.2623 H   0  0  0  0  0  0  0  0  0  0  0  0
  -26.1079   -7.2580    4.9314 H   0  0  0  0  0  0  0  0  0  0  0  0
  -24.4696   -8.6866    5.6920 H   0  0  0  0  0  0  0  0  0  0  0  0
  -11.8953    7.7698    0.8416 H   0  0  0  0  0  0  0  0  0  0  0  0
  -26.8849   -3.5239    0.7047 H   0  0  0  0  0  0  0  0  0  0  0  0
  -24.5805   -0.4223   -2.0375 H   0  0  0  0  0  0  0  0  0  0  0  0
  -24.6640    9.1732   -4.2977 H   0  0  0  0  0  0  0  0  0  0  0  0
  -26.5897    9.4100   -5.5831 H   0  0  0  0  0  0  0  0  0  0  0  0
  -31.2895    6.5564   -2.4986 H   0  0  0  0  0  0  0  0  0  0  0  0
  -30.9756    4.3354   -2.8452 H   0  0  0  0  0  0  0  0  0  0  0  0
  -30.2154    2.7379   -4.3352 H   0  0  0  0  0  0  0  0  0  0  0  0
  -30.3697   -1.3607   -6.7340 H   0  0  0  0  0  0  0  0  0  0  0  0
  -28.4084   -2.7240   -6.7925 H   0  0  0  0  0  0  0  0  0  0  0  0
  -26.0169   -3.0527   -6.3113 H   0  0  0  0  0  0  0  0  0  0  0  0
  -23.9364   -2.2424   -5.4117 H   0  0  0  0  0  0  0  0  0  0  0  0
  -23.8251   -0.0949   -4.3353 H   0  0  0  0  0  0  0  0  0  0  0  0
  -20.2561  -12.5344    2.5426 H   0  0  0  0  0  0  0  0  0  0  0  0
  -11.2000  -18.9025   -2.6000 H   0  0  0  0  0  0  0  0  0  0  0  0
  -15.3680  -18.9716   -2.1430 H   0  0  0  0  0  0  0  0  0  0  0  0
  -20.1663  -14.1597    1.0763 H   0  0  0  0  0  0  0  0  0  0  0  0
  -17.3970  -17.0265   -1.3102 H   0  0  0  0  0  0  0  0  0  0  0  0
  -13.2497  -20.1030   -2.5609 H   0  0  0  0  0  0  0  0  0  0  0  0
  -29.0844    9.9756   -5.0116 H   0  0  0  0  0  0  0  0  0  0  0  0
  -11.6910    4.0285   -0.7847 H   0  0  0  0  0  0  0  0  0  0  0  0
   -9.5166    4.6754   -1.9194 H   0  0  0  0  0  0  0  0  0  0  0  0
   -4.4744    5.1584   -1.6397 H   0  0  0  0  0  0  0  0  0  0  0  0
   -6.7987    5.6770   -2.0970 H   0  0  0  0  0  0  0  0  0  0  0  0
   -2.7416    3.5143   -0.8670 H   0  0  0  0  0  0  0  0  0  0  0  0
   -0.8756    2.3169   -0.4153 H   0  0  0  0  0  0  0  0  0  0  0  0
    1.3905   -1.6406    0.0492 H   0  0  0  0  0  0  0  0  0  0  0  0
    2.3789   -3.7302   -0.0695 H   0  0  0  0  0  0  0  0  0  0  0  0
   -4.0377  -13.6734   -1.0784 H   0  0  0  0  0  0  0  0  0  0  0  0
   -8.3460  -15.2925   -1.8669 H   0  0  0  0  0  0  0  0  0  0  0  0
    1.3937  -10.7247   -1.5610 H   0  0  0  0  0  0  0  0  0  0  0  0
    3.1585   -8.2563   -1.4916 H   0  0  0  0  0  0  0  0  0  0  0  0
    3.0447   -5.9017   -0.8115 H   0  0  0  0  0  0  0  0  0  0  0  0
  1  2  1  0  0  0  0
  2  3  1  0  0  0  0
  3  4  2  0  0  0  0
  4  5  1  0  0  0  0
  5  6  2  0  0  0  0
  1  6  1  0  0  0  0
  7  8  1  0  0  0  0
  8  9  1  0  0  0  0
  9 10  1  0  0  0  0
  1 10  2  0  0  0  0
  2  7  2  0  0  0  0
 11 12  1  0  0  0  0
 12 13  1  0  0  0  0
 13 14  2  0  0  0  0
  9 11  2  0  0  0  0
 10 14  1  0  0  0  0
 16 17  1  0  0  0  0
 17 18  2  0  0  0  0
 18 19  1  0  0  0  0
 19 20  1  0  0  0  0
 15 16  1  0  0  0  0
 15 20  2  0  0  0  0
 11 15  1  0  0  0  0
 22 23  1  0  0  0  0
 21 22  2  0  0  0  0
 18 21  1  0  0  0  0
 24 25  2  0  0  0  0
 26 27  2  0  0  0  0
 27 28  1  0  0  0  0
 28 29  2  0  0  0  0
 29 30  1  0  0  0  0
 32 33  2  0  0  0  0
 33 34  1  0  0  0  0
 34 35  2  0  0  0  0
 35 36  1  0  0  0  0
 31 32  1  0  0  0  0
 31 36  2  0  0  0  0
 29 31  1  0  0  0  0
 37 38  2  0  0  0  0
 38 39  1  0  0  0  0
  7 37  1  0  0  0  0
  8 39  2  0  0  0  0
 40 41  1  0  0  0  0
 41 42  2  0  0  0  0
 35 40  1  0  0  0  0
 36 42  1  0  0  0  0
 43 44  1  0  0  0  0
 44 45  2  0  0  0  0
 33 43  1  0  0  0  0
 34 45  1  0  0  0  0
 46 47  2  0  0  0  0
 47 48  1  0  0  0  0
 48 49  1  0  0  0  0
 27 49  1  0  0  0  0
 28 46  1  0  0  0  0
 16 51  2  0  0  0  0
 17 50  1  0  0  0  0
 50 52  1  0  0  0  0
 22 53  1  0  0  0  0
 53 52  2  0  0  0  0
 26 54  1  0  0  0  0
 49 55  2  0  0  0  0
 54 56  2  0  0  0  0
 56 57  1  0  0  0  0
 57 55  1  0  0  0  0
 46 58  1  0  0  0  0
 58 59  2  0  0  0  0
 59 32  1  0  0  0  0
 20 60  1  0  0  0  0
 60 39  1  0  0  0  0
  3 61  1  0  0  0  0
 37 62  1  0  0  0  0
 62 63  2  0  0  0  0
 63 61  1  0  0  0  0
 64 65  1  0  0  0  0
 66 67  1  0  0  0  0
 67 68  1  0  0  0  0
 62 68  1  0  0  0  0
 38 66  1  0  0  0  0
 40 64  2  0  0  0  0
 65 45  1  0  0  0  0
 60 69  2  0  0  0  0
 70 25  1  0  0  0  0
 51 71  1  0  0  0  0
 12 71  2  0  0  0  0
 70 69  1  0  0  0  0
 24 54  1  0  0  0  0
 30 72  2  0  0  0  0
 72 73  1  0  0  0  0
 42 72  1  0  0  0  0
 69 74  1  0  0  0  0
 66 74  2  0  0  0  0
 74 56  1  0  0  0  0
 57 67  2  0  0  0  0
 19 70  2  0  0  0  0
 75 76  1  0  0  0  0
 76 77  1  0  0  0  0
 77 78  2  0  0  0  0
 78 79  1  0  0  0  0
 79 80  1  0  0  0  0
 75 80  2  0  0  0  0
 81 82  1  0  0  0  0
 82 83  1  0  0  0  0
 83 84  2  0  0  0  0
 75 84  1  0  0  0  0
 76 81  2  0  0  0  0
 85 86  2  0  0  0  0
 86 87  1  0  0  0  0
 87 88  2  0  0  0  0
 83 85  1  0  0  0  0
 84 88  1  0  0  0  0
 90 91  1  0  0  0  0
 91 92  1  0  0  0  0
 92 93  1  0  0  0  0
 93 94  2  0  0  0  0
 89 90  2  0  0  0  0
 89 94  1  0  0  0  0
 85 89  1  0  0  0  0
 96 97  1  0  0  0  0
 97 98  1  0  0  0  0
 98 99  1  0  0  0  0
 99100  2  0  0  0  0
 95 96  1  0  0  0  0
 92 95  2  0  0  0  0
102101  1  0  0  0  0
102103  2  0  0  0  0
103104  1  0  0  0  0
 99101  1  0  0  0  0
100104  1  0  0  0  0
106107  2  0  0  0  0
107108  1  0  0  0  0
108109  1  0  0  0  0
109110  1  0  0  0  0
105106  1  0  0  0  0
105110  2  0  0  0  0
102105  1  0  0  0  0
112113  1  0  0  0  0
111114  1  0  0  0  0
109111  2  0  0  0  0
115116  2  0  0  0  0
116117  1  0  0  0  0
 81115  1  0  0  0  0
 82117  2  0  0  0  0
118119  1  0  0  0  0
101118  2  0  0  0  0
120121  2  0  0  0  0
121122  1  0  0  0  0
113120  1  0  0  0  0
114122  2  0  0  0  0
123124  2  0  0  0  0
112124  1  0  0  0  0
125126  1  0  0  0  0
107127  1  0  0  0  0
108125  2  0  0  0  0
128129  1  0  0  0  0
129130  2  0  0  0  0
 90130  1  0  0  0  0
128131  1  0  0  0  0
 96132  2  0  0  0  0
132131  1  0  0  0  0
106133  1  0  0  0  0
127134  2  0  0  0  0
 94135  1  0  0  0  0
135117  1  0  0  0  0
 77136  1  0  0  0  0
115137  1  0  0  0  0
137138  1  0  0  0  0
138136  1  0  0  0  0
119 98  2  0  0  0  0
139140  2  0  0  0  0
141142  2  0  0  0  0
142143  1  0  0  0  0
137143  2  0  0  0  0
116141  1  0  0  0  0
120139  1  0  0  0  0
140124  1  0  0  0  0
135144  2  0  0  0  0
145104  2  0  0  0  0
130146  1  0  0  0  0
 86146  1  0  0  0  0
145144  1  0  0  0  0
103133  1  0  0  0  0
110147  1  0  0  0  0
147148  2  0  0  0  0
118148  1  0  0  0  0
122147  1  0  0  0  0
 93145  1  0  0  0  0
 41149  1  0  0  0  0
 73150  1  0  0  0  0
150151  1  0  0  0  0
152151  2  0  0  0  0
139152  1  0  0  0  0
121153  1  0  0  0  0
151153  1  0  0  0  0
149150  2  0  0  0  0
153154  2  0  0  0  0
148154  1  0  0  0  0
154155  1  0  0  0  0
155149  1  0  0  0  0
155156  2  0  0  0  0
 64156  1  0  0  0  0
156119  1  0  0  0  0
 23140  1  0  0  0  0
 53123  1  0  0  0  0
 97 65  2  0  0  0  0
 59157  1  0  0  0  0
157158  2  0  0  0  0
 43159  2  0  0  0  0
159158  1  0  0  0  0
157160  1  0  0  0  0
 58161  1  0  0  0  0
161162  2  0  0  0  0
162163  1  0  0  0  0
160163  1  0  0  0  0
164165  2  0  0  0  0
165166  1  0  0  0  0
166158  1  0  0  0  0
166167  2  0  0  0  0
167168  1  0  0  0  0
168169  2  0  0  0  0
169159  1  0  0  0  0
169170  1  0  0  0  0
170171  2  0  0  0  0
171172  1  0  0  0  0
168173  1  0  0  0  0
172173  2  0  0  0  0
173174  1  0  0  0  0
170 44  1  0  0  0  0
174175  1  0  0  0  0
175176  2  0  0  0  0
172177  1  0  0  0  0
176177  1  0  0  0  0
177178  2  0  0  0  0
178179  1  0  0  0  0
171180  1  0  0  0  0
180179  2  0  0  0  0
181182  1  0  0  0  0
182183  1  0  0  0  0
183184  1  0  0  0  0
185186  1  0  0  0  0
186187  1  0  0  0  0
187188  2  0  0  0  0
181188  1  0  0  0  0
182185  2  0  0  0  0
189190  1  0  0  0  0
190191  1  0  0  0  0
191192  2  0  0  0  0
187189  1  0  0  0  0
188192  1  0  0  0  0
194195  2  0  0  0  0
195196  1  0  0  0  0
196197  2  0  0  0  0
197198  1  0  0  0  0
193194  1  0  0  0  0
193198  1  0  0  0  0
189193  2  0  0  0  0
199200  1  0  0  0  0
202203  2  0  0  0  0
203204  1  0  0  0  0
185202  1  0  0  0  0
186204  2  0  0  0  0
194205  1  0  0  0  0
201206  1  0  0  0  0
206208  2  0  0  0  0
208209  1  0  0  0  0
209207  2  0  0  0  0
198210  2  0  0  0  0
210204  1  0  0  0  0
183211  2  0  0  0  0
202212  1  0  0  0  0
212213  1  0  0  0  0
213211  1  0  0  0  0
214215  2  0  0  0  0
215216  1  0  0  0  0
212216  2  0  0  0  0
203214  1  0  0  0  0
210217  1  0  0  0  0
218200  2  0  0  0  0
205219  1  0  0  0  0
190219  2  0  0  0  0
218217  1  0  0  0  0
199206  1  0  0  0  0
217220  2  0  0  0  0
214220  1  0  0  0  0
220208  1  0  0  0  0
209215  1  0  0  0  0
197218  1  0  0  0  0
181138  2  0  0  0  0
184136  2  0  0  0  0
143192  1  0  0  0  0
191134  1  0  0  0  0
207221  1  0  0  0  0
160222  2  0  0  0  0
222164  1  0  0  0  0
163223  2  0  0  0  0
223224  1  0  0  0  0
222224  1  0  0  0  0
221201  2  0  0  0  0
141144  1  0  0  0  0
 21 25  1  0  0  0  0
142134  1  0  0  0  0
 30 26  1  0  0  0  0
219225  1  0  0  0  0
225226  1  0  0  0  0
226127  1  0  0  0  0
126226  2  0  0  0  0
 48227  2  0  0  0  0
 50228  2  0  0  0  0
 68229  2  0  0  0  0
 79230  2  0  0  0  0
131231  2  0  0  0  0
133232  2  0  0  0  0
199233  2  0  0  0  0
213234  2  0  0  0  0
224235  2  0  0  0  0
152236  1  0  0  0  0
236 23  2  0  0  0  0
 73237  2  0  0  0  0
236237  1  0  0  0  0
237 24  1  0  0  0  0
111238  1  0  0  0  0
125239  1  0  0  0  0
238239  2  0  0  0  0
238240  1  0  0  0  0
240241  2  0  0  0  0
239242  1  0  0  0  0
242243  2  0  0  0  0
241243  1  0  0  0  0
241244  1  0  0  0  0
240245  1  0  0  0  0
245246  1  0  0  0  0
244246  1  0  0  0  0
244247  2  0  0  0  0
247248  1  0  0  0  0
248249  2  0  0  0  0
243249  1  0  0  0  0
249250  1  0  0  0  0
242251  1  0  0  0  0
251252  2  0  0  0  0
252250  1  0  0  0  0
250253  2  0  0  0  0
253254  1  0  0  0  0
254255  1  0  0  0  0
255248  1  0  0  0  0
113256  2  0  0  0  0
114256  1  0  0  0  0
256257  1  0  0  0  0
257245  2  0  0  0  0
246258  2  0  0  0  0
258259  1  0  0  0  0
247260  1  0  0  0  0
260259  2  0  0  0  0
260261  1  0  0  0  0
261255  2  0  0  0  0
261262  1  0  0  0  0
262263  1  0  0  0  0
259264  1  0  0  0  0
264263  2  0  0  0  0
262265  2  0  0  0  0
265266  1  0  0  0  0
254267  2  0  0  0  0
267266  1  0  0  0  0
126268  1  0  0  0  0
268269  2  0  0  0  0
269251  1  0  0  0  0
268270  1  0  0  0  0
225271  2  0  0  0  0
271270  1  0  0  0  0
270272  2  0  0  0  0
272273  1  0  0  0  0
273274  1  0  0  0  0
269274  1  0  0  0  0
274275  2  0  0  0  0
275252  1  0  0  0  0
275276  1  0  0  0  0
276277  1  0  0  0  0
253278  1  0  0  0  0
277278  2  0  0  0  0
278279  1  0  0  0  0
279280  2  0  0  0  0
280267  1  0  0  0  0
277281  1  0  0  0  0
281282  1  0  0  0  0
282279  1  0  0  0  0
273283  2  0  0  0  0
283284  1  0  0  0  0
284276  2  0  0  0  0
272285  1  0  0  0  0
285286  1  0  0  0  0
286287  2  0  0  0  0
287283  1  0  0  0  0
287288  1  0  0  0  0
288289  2  0  0  0  0
284290  1  0  0  0  0
289290  1  0  0  0  0
271291  1  0  0  0  0
291292  1  0  0  0  0
292285  2  0  0  0  0
290281  2  0  0  0  0
282293  2  0  0  0  0
293294  1  0  0  0  0
280295  1  0  0  0  0
295294  2  0  0  0  0
293296  1  0  0  0  0
296297  1  0  0  0  0
297298  2  0  0  0  0
289298  1  0  0  0  0
266299  2  0  0  0  0
299300  1  0  0  0  0
300295  1  0  0  0  0
296301  2  0  0  0  0
294302  1  0  0  0  0
302303  2  0  0  0  0
303301  1  0  0  0  0
301304  1  0  0  0  0
304305  1  0  0  0  0
297305  1  0  0  0  0
305306  2  0  0  0  0
306307  1  0  0  0  0
298308  1  0  0  0  0
308307  2  0  0  0  0
308309  1  0  0  0  0
288310  1  0  0  0  0
310311  2  0  0  0  0
311309  1  0  0  0  0
309312  2  0  0  0  0
312313  1  0  0  0  0
307314  1  0  0  0  0
314313  1  0  0  0  0
205291  2  0  0  0  0
292315  1  0  0  0  0
195315  1  0  0  0  0
315316  2  0  0  0  0
286317  1  0  0  0  0
317316  1  0  0  0  0
317318  2  0  0  0  0
318310  1  0  0  0  0
316319  1  0  0  0  0
319320  2  0  0  0  0
196320  1  0  0  0  0
319321  1  0  0  0  0
321322  1  0  0  0  0
318322  1  0  0  0  0
322323  2  0  0  0  0
311323  1  0  0  0  0
323324  1  0  0  0  0
324312  1  0  0  0  0
321325  2  0  0  0  0
325326  1  0  0  0  0
326324  2  0  0  0  0
320327  1  0  0  0  0
327328  1  0  0  0  0
328325  1  0  0  0  0
300329  2  0  0  0  0
327330  2  0  0  0  0
200330  1  0  0  0  0
306331  1  0  0  0  0
314332  2  0  0  0  0
331332  1  0  0  0  0
331333  2  0  0  0  0
304334  2  0  0  0  0
334333  1  0  0  0  0
 95100  1  0  0  0  0
 61335  2  0  0  0  0
174336  2  0  0  0  0
 91128  2  0  0  0  0
  4337  1  0  0  0  0
  5338  1  0  0  0  0
  6339  1  0  0  0  0
 13340  1  0  0  0  0
 14341  1  0  0  0  0
 47342  1  0  0  0  0
 51343  1  0  0  0  0
 52344  1  0  0  0  0
 55345  1  0  0  0  0
 63346  1  0  0  0  0
 71347  1  0  0  0  0
 78348  1  0  0  0  0
 80349  1  0  0  0  0
 87350  1  0  0  0  0
 88351  1  0  0  0  0
123352  1  0  0  0  0
129353  1  0  0  0  0
132354  1  0  0  0  0
161355  1  0  0  0  0
162356  1  0  0  0  0
164357  1  0  0  0  0
165358  1  0  0  0  0
167359  1  0  0  0  0
175360  1  0  0  0  0
176361  1  0  0  0  0
178362  1  0  0  0  0
179363  1  0  0  0  0
180364  1  0  0  0  0
184365  1  0  0  0  0
201366  1  0  0  0  0
207367  1  0  0  0  0
211368  1  0  0  0  0
216369  1  0  0  0  0
221370  1  0  0  0  0
223371  1  0  0  0  0
257372  1  0  0  0  0
258373  1  0  0  0  0
263374  1  0  0  0  0
264375  1  0  0  0  0
265376  1  0  0  0  0
299377  1  0  0  0  0
302378  1  0  0  0  0
303379  1  0  0  0  0
326380  1  0  0  0  0
330381  1  0  0  0  0
332382  1  0  0  0  0
333383  1  0  0  0  0
334384  1  0  0  0  0
M  END
