
  Mrv2101 10312211453D          

382512  0  0  0  0            999 V2000
  -30.1529   14.9346   -1.7559 C   0  0  0  0  0  0  0  0  0  0  0  0
  -31.0869   13.8837   -1.4023 C   0  0  0  0  0  0  0  0  0  0  0  0
  -32.4436   14.1239   -0.9755 C   0  0  0  0  0  0  0  0  0  0  0  0
  -32.8553   15.4845   -1.0261 C   0  0  0  0  0  0  0  0  0  0  0  0
  -32.0011   16.5278   -1.3959 C   0  0  0  0  0  0  0  0  0  0  0  0
  -30.6745   16.2541   -1.7449 C   0  0  0  0  0  0  0  0  0  0  0  0
  -30.5835   12.5856   -1.5198 C   0  0  0  0  0  0  0  0  0  0  0  0
  -29.2333   12.3552   -1.8831 C   0  0  0  0  0  0  0  0  0  0  0  0
  -28.2161   13.3298   -1.9867 C   0  0  0  0  0  0  0  0  0  0  0  0
  -28.7510   14.6606   -2.0463 C   0  0  0  0  0  0  0  0  0  0  0  0
  -26.7784   13.0673   -1.9502 C   0  0  0  0  0  0  0  0  0  0  0  0
  -25.8940   14.1767   -2.0869 C   0  0  0  0  0  0  0  0  0  0  0  0
  -26.4237   15.4463   -2.4063 C   0  0  0  0  0  0  0  0  0  0  0  0
  -27.8105   15.6726   -2.3777 C   0  0  0  0  0  0  0  0  0  0  0  0
  -26.1117   11.8107   -1.7033 C   0  0  0  0  0  0  0  0  0  0  0  0
  -24.7393   11.6825   -1.1509 C   0  0  0  0  0  0  0  0  0  0  0  0
  -24.2133   10.4830   -0.4301 C   0  0  0  0  0  0  0  0  0  0  0  0
  -25.0493    9.2757   -0.6799 C   0  0  0  0  0  0  0  0  0  0  0  0
  -26.1957    9.3769   -1.4687 C   0  0  0  0  0  0  0  0  0  0  0  0
  -26.7329   10.5672   -1.8746 C   0  0  0  0  0  0  0  0  0  0  0  0
  -25.1845    7.8808   -0.2657 C   0  0  0  0  0  0  0  0  0  0  0  0
  -24.1715    7.2797    0.5349 C   0  0  0  0  0  0  0  0  0  0  0  0
  -24.1986    5.8705    0.5063 C   0  0  0  0  0  0  0  0  0  0  0  0
  -27.1819    5.9942   -0.7915 C   0  0  0  0  0  0  0  0  0  0  0  0
  -26.4411    7.2579   -0.7541 C   0  0  0  0  0  0  0  0  0  0  0  0
  -29.4487    4.6948   -1.0972 C   0  0  0  0  0  0  0  0  0  0  0  0
  -30.8120    4.3510   -0.8033 C   0  0  0  0  0  0  0  0  0  0  0  0
  -31.1712    3.1714   -1.4648 C   0  0  0  0  0  0  0  0  0  0  0  0
  -30.0955    2.7198   -2.1522 C   0  0  0  0  0  0  0  0  0  0  0  0
  -29.0058    3.6066   -1.8622 C   0  0  0  0  0  0  0  0  0  0  0  0
  -30.0472    1.4794   -2.8478 C   0  0  0  0  0  0  0  0  0  0  0  0
  -30.9922    0.3652   -2.9584 C   0  0  0  0  0  0  0  0  0  0  0  0
  -30.3146   -0.8690   -3.2015 C   0  0  0  0  0  0  0  0  0  0  0  0
  -28.9612   -1.0772   -3.4260 C   0  0  0  0  0  0  0  0  0  0  0  0
  -28.2561    0.0604   -3.5933 C   0  0  0  0  0  0  0  0  0  0  0  0
  -28.7422    1.2997   -3.3026 C   0  0  0  0  0  0  0  0  0  0  0  0
  -31.2028   11.3568   -1.2322 C   0  0  0  0  0  0  0  0  0  0  0  0
  -30.2797   10.4312   -1.5778 C   0  0  0  0  0  0  0  0  0  0  0  0
  -29.1065   10.9961   -1.9849 C   0  0  0  0  0  0  0  0  0  0  0  0
  -26.9248    0.0252   -3.5740 C   0  0  0  0  0  0  0  0  0  0  0  0
  -26.5589    1.3070   -3.2411 C   0  0  0  0  0  0  0  0  0  0  0  0
  -27.6558    2.1066   -3.0542 C   0  0  0  0  0  0  0  0  0  0  0  0
  -30.6690   -2.1541   -3.2862 C   0  0  0  0  0  0  0  0  0  0  0  0
  -29.5921   -3.0317   -3.4595 C   0  0  0  0  0  0  0  0  0  0  0  0
  -28.3436   -2.3514   -3.3423 C   0  0  0  0  0  0  0  0  0  0  0  0
  -32.4404    2.5777   -1.4621 C   0  0  0  0  0  0  0  0  0  0  0  0
  -33.3420    3.0678   -0.4989 C   0  0  0  0  0  0  0  0  0  0  0  0
  -33.0260    4.2220    0.2537 C   0  0  0  0  0  0  0  0  0  0  0  0
  -31.8414    4.9675   -0.0402 C   0  0  0  0  0  0  0  0  0  0  0  0
  -23.1885   10.3856    0.5682 C   0  0  0  0  0  0  0  0  0  0  0  0
  -23.9446   12.8297   -1.3973 C   0  0  0  0  0  0  0  0  0  0  0  0
  -22.6904    9.2696    1.3264 C   0  0  0  0  0  0  0  0  0  0  0  0
  -23.0399    7.8960    1.2358 C   0  0  0  0  0  0  0  0  0  0  0  0
  -28.6837    5.8900   -0.8539 C   0  0  0  0  0  0  0  0  0  0  0  0
  -31.8322    6.3353    0.2679 C   0  0  0  0  0  0  0  0  0  0  0  0
  -29.6200    7.0000   -0.8237 C   0  0  0  0  0  0  0  0  0  0  0  0
  -30.9699    7.2413   -0.3488 C   0  0  0  0  0  0  0  0  0  0  0  0
  -32.8631    1.7648   -2.5456 C   0  0  0  0  0  0  0  0  0  0  0  0
  -32.4330    0.4330   -2.8533 C   0  0  0  0  0  0  0  0  0  0  0  0
  -28.0176   10.1637   -2.0855 C   0  0  0  0  0  0  0  0  0  0  0  0
  -33.4205   13.1763   -0.4848 C   0  0  0  0  0  0  0  0  0  0  0  0
  -32.3704   10.8662   -0.6147 C   0  0  0  0  0  0  0  0  0  0  0  0
  -33.3831   11.7686   -0.2857 C   0  0  0  0  0  0  0  0  0  0  0  0
  -26.2151   -1.1487   -3.3331 C   0  0  0  0  0  0  0  0  0  0  0  0
  -26.8723   -2.4532   -3.1340 C   0  0  0  0  0  0  0  0  0  0  0  0
  -30.3742    9.0901   -1.2735 C   0  0  0  0  0  0  0  0  0  0  0  0
  -31.4068    8.5839   -0.5720 C   0  0  0  0  0  0  0  0  0  0  0  0
  -32.4379    9.4879   -0.2962 O   0  0  0  0  0  0  0  0  0  0  0  0
  -28.1564    8.7853   -1.8225 C   0  0  0  0  0  0  0  0  0  0  0  0
  -26.9652    8.3075   -1.4398 C   0  0  0  0  0  0  0  0  0  0  0  0
  -24.4976   14.0265   -1.8887 C   0  0  0  0  0  0  0  0  0  0  0  0
  -27.6865    3.2537   -2.2432 C   0  0  0  0  0  0  0  0  0  0  0  0
  -26.4488    3.6732   -1.6579 C   0  0  0  0  0  0  0  0  0  0  0  0
  -29.3336    8.2175   -1.4025 C   0  0  0  0  0  0  0  0  0  0  0  0
  -22.3416  -11.2962    5.2103 C   0  0  0  0  0  0  0  0  0  0  0  0
  -21.1442  -10.8912    4.5122 C   0  0  0  0  0  0  0  0  0  0  0  0
  -20.0510  -11.7767    4.3085 C   0  0  0  0  0  0  0  0  0  0  0  0
  -19.9800  -12.8420    5.2536 C   0  0  0  0  0  0  0  0  0  0  0  0
  -21.0237  -13.1353    6.1470 C   0  0  0  0  0  0  0  0  0  0  0  0
  -22.2146  -12.3974    6.0887 C   0  0  0  0  0  0  0  0  0  0  0  0
  -21.1311   -9.5962    4.0012 C   0  0  0  0  0  0  0  0  0  0  0  0
  -22.3298   -8.8899    3.9339 C   0  0  0  0  0  0  0  0  0  0  0  0
  -23.6062   -9.4258    4.1630 C   0  0  0  0  0  0  0  0  0  0  0  0
  -23.5953  -10.6198    4.9470 C   0  0  0  0  0  0  0  0  0  0  0  0
  -24.8061   -8.9029    3.5638 C   0  0  0  0  0  0  0  0  0  0  0  0
  -26.0535   -9.5242    3.8794 C   0  0  0  0  0  0  0  0  0  0  0  0
  -26.0677  -10.5861    4.8065 C   0  0  0  0  0  0  0  0  0  0  0  0
  -24.8692  -11.1174    5.3299 C   0  0  0  0  0  0  0  0  0  0  0  0
  -24.8586   -7.8960    2.5445 C   0  0  0  0  0  0  0  0  0  0  0  0
  -26.0473   -7.6252    1.8544 C   0  0  0  0  0  0  0  0  0  0  0  0
  -26.1814   -6.7909    0.7314 C   0  0  0  0  0  0  0  0  0  0  0  0
  -25.0516   -6.1821    0.1205 C   0  0  0  0  0  0  0  0  0  0  0  0
  -23.8356   -6.4318    0.8292 C   0  0  0  0  0  0  0  0  0  0  0  0
  -23.8111   -7.1373    2.0070 C   0  0  0  0  0  0  0  0  0  0  0  0
  -25.0070   -5.3173   -1.0187 C   0  0  0  0  0  0  0  0  0  0  0  0
  -26.1557   -4.6663   -1.6840 C   0  0  0  0  0  0  0  0  0  0  0  0
  -25.9639   -3.4807   -2.5458 C   0  0  0  0  0  0  0  0  0  0  0  0
  -24.5825   -3.1214   -2.5740 C   0  0  0  0  0  0  0  0  0  0  0  0
  -23.5076   -3.7792   -2.0606 C   0  0  0  0  0  0  0  0  0  0  0  0
  -23.6446   -4.9408   -1.3390 C   0  0  0  0  0  0  0  0  0  0  0  0
  -22.3990   -2.9481   -1.8967 C   0  0  0  0  0  0  0  0  0  0  0  0
  -21.2597   -3.3866   -1.2689 C   0  0  0  0  0  0  0  0  0  0  0  0
  -21.1861   -4.7146   -0.9555 C   0  0  0  0  0  0  0  0  0  0  0  0
  -22.4135   -5.3632   -0.7020 C   0  0  0  0  0  0  0  0  0  0  0  0
  -20.1958   -2.7229   -0.6951 C   0  0  0  0  0  0  0  0  0  0  0  0
  -19.2978   -3.7321   -0.2672 C   0  0  0  0  0  0  0  0  0  0  0  0
  -18.0830   -3.4512    0.4133 C   0  0  0  0  0  0  0  0  0  0  0  0
  -17.7771   -2.0056    0.4219 C   0  0  0  0  0  0  0  0  0  0  0  0
  -18.8168   -0.9919    0.1438 C   0  0  0  0  0  0  0  0  0  0  0  0
  -20.0763   -1.3334   -0.4544 C   0  0  0  0  0  0  0  0  0  0  0  0
  -18.6157    0.4172    0.3690 C   0  0  0  0  0  0  0  0  0  0  0  0
  -20.9058    4.8106    1.8198 O   0  0  0  0  0  0  0  0  0  0  0  0
  -20.8449    3.5103    1.2831 C   0  0  0  0  0  0  0  0  0  0  0  0
  -19.7142    1.3630    0.4895 C   0  0  0  0  0  0  0  0  0  0  0  0
  -20.1402   -8.8581    3.3256 C   0  0  0  0  0  0  0  0  0  0  0  0
  -20.6623   -7.6315    2.9868 C   0  0  0  0  0  0  0  0  0  0  0  0
  -21.9448   -7.7639    3.2856 C   0  0  0  0  0  0  0  0  0  0  0  0
  -22.7955   -1.6801   -2.1257 C   0  0  0  0  0  0  0  0  0  0  0  0
  -24.0615   -1.8539   -2.6890 C   0  0  0  0  0  0  0  0  0  0  0  0
  -21.9755    3.0527    0.6227 C   0  0  0  0  0  0  0  0  0  0  0  0
  -22.0197    1.8816   -0.1508 C   0  0  0  0  0  0  0  0  0  0  0  0
  -20.9416    0.9469   -0.1212 C   0  0  0  0  0  0  0  0  0  0  0  0
  -22.0295    7.0679    1.8611 C   0  0  0  0  0  0  0  0  0  0  0  0
  -21.9738    5.6851    1.6579 C   0  0  0  0  0  0  0  0  0  0  0  0
  -16.4186   -1.5512    0.6290 C   0  0  0  0  0  0  0  0  0  0  0  0
  -15.4589   -2.5716    1.0576 C   0  0  0  0  0  0  0  0  0  0  0  0
  -17.2259   -4.5385    0.9160 C   0  0  0  0  0  0  0  0  0  0  0  0
  -27.5385   -6.7697    0.4462 C   0  0  0  0  0  0  0  0  0  0  0  0
  -28.1756   -7.6537    1.3588 C   0  0  0  0  0  0  0  0  0  0  0  0
  -27.2293   -8.2106    2.2256 C   0  0  0  0  0  0  0  0  0  0  0  0
  -28.1319   -5.9754   -0.5467 C   0  0  0  0  0  0  0  0  0  0  0  0
  -27.5020   -5.0421   -1.4092 C   0  0  0  0  0  0  0  0  0  0  0  0
  -19.8641   -4.9581   -0.6682 C   0  0  0  0  0  0  0  0  0  0  0  0
  -17.5898   -5.9984    1.1837 C   0  0  0  0  0  0  0  0  0  0  0  0
  -22.5226   -7.0165    2.3739 C   0  0  0  0  0  0  0  0  0  0  0  0
  -19.1253  -11.7275    3.1978 C   0  0  0  0  0  0  0  0  0  0  0  0
  -18.9853   -9.2181    2.6488 C   0  0  0  0  0  0  0  0  0  0  0  0
  -18.5601  -10.5826    2.5221 C   0  0  0  0  0  0  0  0  0  0  0  0
  -23.0420    3.9400    0.5648 C   0  0  0  0  0  0  0  0  0  0  0  0
  -23.0899    5.1990    1.0185 C   0  0  0  0  0  0  0  0  0  0  0  0
  -20.2314   -6.7088    2.0042 C   0  0  0  0  0  0  0  0  0  0  0  0
  -18.7857   -6.7579    1.6902 C   0  0  0  0  0  0  0  0  0  0  0  0
  -18.3743   -8.1228    1.9275 C   0  0  0  0  0  0  0  0  0  0  0  0
  -21.5921   -6.4343    1.5274 C   0  0  0  0  0  0  0  0  0  0  0  0
  -22.5118   -6.0525    0.4980 C   0  0  0  0  0  0  0  0  0  0  0  0
  -27.2242   -9.1416    3.2378 O   0  0  0  0  0  0  0  0  0  0  0  0
  -21.0993   -0.3348   -0.7558 C   0  0  0  0  0  0  0  0  0  0  0  0
  -22.2963   -0.4817   -1.5762 C   0  0  0  0  0  0  0  0  0  0  0  0
  -25.3731    1.5438   -2.6066 C   0  0  0  0  0  0  0  0  0  0  0  0
  -25.3450    2.7083   -1.8109 C   0  0  0  0  0  0  0  0  0  0  0  0
  -24.1964    2.7254   -1.0241 C   0  0  0  0  0  0  0  0  0  0  0  0
  -24.1356    3.8189   -0.2093 C   0  0  0  0  0  0  0  0  0  0  0  0
  -23.1481    1.7367   -0.9913 C   0  0  0  0  0  0  0  0  0  0  0  0
  -23.2493    0.5794   -1.7597 C   0  0  0  0  0  0  0  0  0  0  0  0
  -24.4459    0.4671   -2.5325 C   0  0  0  0  0  0  0  0  0  0  0  0
  -24.8893   -0.8173   -2.9604 C   0  0  0  0  0  0  0  0  0  0  0  0
  -33.4297   -0.6270   -3.1118 C   0  0  0  0  0  0  0  0  0  0  0  0
  -33.2039   -2.0790   -3.1263 C   0  0  0  0  0  0  0  0  0  0  0  0
  -31.9194   -2.6661   -3.2868 C   0  0  0  0  0  0  0  0  0  0  0  0
  -34.7500   -0.2052   -3.5284 C   0  0  0  0  0  0  0  0  0  0  0  0
  -33.4368    2.5540   -3.5616 C   0  0  0  0  0  0  0  0  0  0  0  0
  -34.3663    2.1255   -4.4922 C   0  0  0  0  0  0  0  0  0  0  0  0
  -35.0907    0.9611   -4.2588 C   0  0  0  0  0  0  0  0  0  0  0  0
  -36.3260   -1.9719   -2.6529 C   0  0  0  0  0  0  0  0  0  0  0  0
  -35.4643   -3.0346   -2.4676 C   0  0  0  0  0  0  0  0  0  0  0  0
  -34.1693   -3.1555   -2.9988 C   0  0  0  0  0  0  0  0  0  0  0  0
  -33.8810   -4.5148   -3.3778 C   0  0  0  0  0  0  0  0  0  0  0  0
  -32.6075   -4.9348   -3.8282 C   0  0  0  0  0  0  0  0  0  0  0  0
  -31.6084   -3.9894   -3.6053 C   0  0  0  0  0  0  0  0  0  0  0  0
  -30.2337   -4.2362   -3.7765 C   0  0  0  0  0  0  0  0  0  0  0  0
  -29.8114   -5.4649   -4.3158 C   0  0  0  0  0  0  0  0  0  0  0  0
  -30.8164   -6.4117   -4.6997 C   0  0  0  0  0  0  0  0  0  0  0  0
  -32.2194   -6.1506   -4.4753 C   0  0  0  0  0  0  0  0  0  0  0  0
  -33.1618   -7.0842   -4.9935 C   0  0  0  0  0  0  0  0  0  0  0  0
  -32.7383   -8.2347   -5.6775 C   0  0  0  0  0  0  0  0  0  0  0  0
  -31.3757   -8.5011   -5.8456 C   0  0  0  0  0  0  0  0  0  0  0  0
  -30.3968   -7.6093   -5.3573 C   0  0  0  0  0  0  0  0  0  0  0  0
  -29.0160   -7.8801   -5.5412 C   0  0  0  0  0  0  0  0  0  0  0  0
  -28.0531   -6.9378   -5.1439 C   0  0  0  0  0  0  0  0  0  0  0  0
  -28.4487   -5.7280   -4.5608 C   0  0  0  0  0  0  0  0  0  0  0  0
  -17.4705  -10.8032    1.6152 C   0  0  0  0  0  0  0  0  0  0  0  0
  -17.0607  -12.1317    1.2504 C   0  0  0  0  0  0  0  0  0  0  0  0
  -17.7827  -13.2686    1.6910 C   0  0  0  0  0  0  0  0  0  0  0  0
  -18.7882  -13.0056    2.6534 C   0  0  0  0  0  0  0  0  0  0  0  0
  -15.8837  -12.2535    0.4936 C   0  0  0  0  0  0  0  0  0  0  0  0
  -15.0987  -11.1081    0.2230 C   0  0  0  0  0  0  0  0  0  0  0  0
  -15.4589   -9.7904    0.5300 C   0  0  0  0  0  0  0  0  0  0  0  0
  -16.7332   -9.6737    1.1207 C   0  0  0  0  0  0  0  0  0  0  0  0
  -14.6247   -8.6350    0.4628 C   0  0  0  0  0  0  0  0  0  0  0  0
  -15.2953   -7.3481    0.7319 C   0  0  0  0  0  0  0  0  0  0  0  0
  -16.6757   -7.1320    0.9885 C   0  0  0  0  0  0  0  0  0  0  0  0
  -17.2260   -8.3652    1.2928 C   0  0  0  0  0  0  0  0  0  0  0  0
  -13.1625   -8.7189    0.3856 C   0  0  0  0  0  0  0  0  0  0  0  0
  -12.4196   -7.6598    0.9101 C   0  0  0  0  0  0  0  0  0  0  0  0
  -10.9891   -7.6260    1.0592 C   0  0  0  0  0  0  0  0  0  0  0  0
  -10.1427   -8.6564    0.5188 C   0  0  0  0  0  0  0  0  0  0  0  0
  -10.8343   -9.7676   -0.0297 C   0  0  0  0  0  0  0  0  0  0  0  0
  -12.2668   -9.7476   -0.0237 C   0  0  0  0  0  0  0  0  0  0  0  0
   -8.6979  -12.8853   -1.1793 C   0  0  0  0  0  0  0  0  0  0  0  0
   -9.0135  -11.5098   -0.7814 C   0  0  0  0  0  0  0  0  0  0  0  0
   -8.9167  -15.3800   -1.6156 C   0  0  0  0  0  0  0  0  0  0  0  0
  -15.2024  -13.4046    0.0632 C   0  0  0  0  0  0  0  0  0  0  0  0
  -14.0130  -12.9027   -0.3742 C   0  0  0  0  0  0  0  0  0  0  0  0
  -13.8951  -11.5549   -0.2481 C   0  0  0  0  0  0  0  0  0  0  0  0
  -13.1798   -6.5529    1.2763 C   0  0  0  0  0  0  0  0  0  0  0  0
   -9.4758  -14.0981   -1.3004 C   0  0  0  0  0  0  0  0  0  0  0  0
  -11.0467  -16.5842   -1.3374 C   0  0  0  0  0  0  0  0  0  0  0  0
  -10.8654  -14.1776   -1.1030 C   0  0  0  0  0  0  0  0  0  0  0  0
  -11.6670  -15.3574   -1.0753 C   0  0  0  0  0  0  0  0  0  0  0  0
  -12.6322  -10.9941   -0.3821 C   0  0  0  0  0  0  0  0  0  0  0  0
  -17.5931  -14.6391    1.3116 C   0  0  0  0  0  0  0  0  0  0  0  0
  -15.3720  -14.8113    0.0788 C   0  0  0  0  0  0  0  0  0  0  0  0
  -16.5759  -15.3287    0.5974 C   0  0  0  0  0  0  0  0  0  0  0  0
  -12.9388  -13.6817   -0.7094 C   0  0  0  0  0  0  0  0  0  0  0  0
  -13.0064  -15.0450   -0.7386 C   0  0  0  0  0  0  0  0  0  0  0  0
  -14.2647  -15.6389   -0.3915 C   0  0  0  0  0  0  0  0  0  0  0  0
  -11.4970  -11.7570   -0.6650 C   0  0  0  0  0  0  0  0  0  0  0  0
  -10.3317  -11.0126   -0.5216 C   0  0  0  0  0  0  0  0  0  0  0  0
  -14.5211   -6.2686    1.0827 C   0  0  0  0  0  0  0  0  0  0  0  0
  -11.6927  -13.1233   -0.8743 C   0  0  0  0  0  0  0  0  0  0  0  0
   -9.6712  -16.5802   -1.6481 C   0  0  0  0  0  0  0  0  0  0  0  0
  -36.0053   -0.8339   -3.3809 C   0  0  0  0  0  0  0  0  0  0  0  0
  -36.4177    0.9377   -4.6710 C   0  0  0  0  0  0  0  0  0  0  0  0
  -37.0054   -0.1459   -4.0702 C   0  0  0  0  0  0  0  0  0  0  0  0
  -14.7893   -4.9113    1.3507 C   0  0  0  0  0  0  0  0  0  0  0  0
  -15.8740   -4.0051    1.1262 C   0  0  0  0  0  0  0  0  0  0  0  0
  -33.8686    4.6037    1.1011 O   0  0  0  0  0  0  0  0  0  0  0  0
  -22.6487   11.4636    0.9098 O   0  0  0  0  0  0  0  0  0  0  0  0
  -20.9100  -14.0813    6.9605 O   0  0  0  0  0  0  0  0  0  0  0  0
  -29.3815   -6.0691   -0.6431 O   0  0  0  0  0  0  0  0  0  0  0  0
  -19.3696   -6.0902   -0.8551 O   0  0  0  0  0  0  0  0  0  0  0  0
   -7.4914  -13.1238   -1.4448 O   0  0  0  0  0  0  0  0  0  0  0  0
  -16.7568  -16.5640    0.4574 O   0  0  0  0  0  0  0  0  0  0  0  0
  -38.2218   -0.4324   -4.1640 O   0  0  0  0  0  0  0  0  0  0  0  0
  -24.9924    4.9186   -0.1834 C   0  0  0  0  0  0  0  0  0  0  0  0
  -26.2621    4.8778   -0.8629 C   0  0  0  0  0  0  0  0  0  0  0  0
  -17.2692    0.8197    0.2523 C   0  0  0  0  0  0  0  0  0  0  0  0
  -16.1639   -0.1374    0.2836 C   0  0  0  0  0  0  0  0  0  0  0  0
  -17.0311    2.1937   -0.0727 C   0  0  0  0  0  0  0  0  0  0  0  0
  -15.8932    2.5123   -0.7255 C   0  0  0  0  0  0  0  0  0  0  0  0
  -14.8879    0.4680   -0.0717 C   0  0  0  0  0  0  0  0  0  0  0  0
  -14.7624    1.7264   -0.7410 C   0  0  0  0  0  0  0  0  0  0  0  0
  -15.8547    3.8531   -0.9622 C   0  0  0  0  0  0  0  0  0  0  0  0
  -17.5678    3.4760    0.2192 C   0  0  0  0  0  0  0  0  0  0  0  0
  -16.8141    4.5659   -0.3197 C   0  0  0  0  0  0  0  0  0  0  0  0
  -14.7084    4.4492   -1.3708 C   0  0  0  0  0  0  0  0  0  0  0  0
  -13.5422    3.7809   -1.4276 C   0  0  0  0  0  0  0  0  0  0  0  0
  -13.5353    2.4342   -1.0490 C   0  0  0  0  0  0  0  0  0  0  0  0
  -12.2877    2.0138   -0.6109 C   0  0  0  0  0  0  0  0  0  0  0  0
  -13.6278    0.0615    0.3551 C   0  0  0  0  0  0  0  0  0  0  0  0
  -12.4389    0.8198    0.1195 C   0  0  0  0  0  0  0  0  0  0  0  0
  -11.1231    2.8709   -0.7518 C   0  0  0  0  0  0  0  0  0  0  0  0
  -11.1814    4.2640   -1.1285 C   0  0  0  0  0  0  0  0  0  0  0  0
  -12.4923    4.6999   -1.3903 C   0  0  0  0  0  0  0  0  0  0  0  0
  -19.6816    2.7199    1.0556 C   0  0  0  0  0  0  0  0  0  0  0  0
  -18.5875    3.5962    1.1235 C   0  0  0  0  0  0  0  0  0  0  0  0
  -16.6421    5.9675   -0.2576 O   0  0  0  0  0  0  0  0  0  0  0  0
  -15.4534    6.5991   -0.7100 C   0  0  0  0  0  0  0  0  0  0  0  0
  -14.4653    5.7580   -1.2263 C   0  0  0  0  0  0  0  0  0  0  0  0
  -13.0917    5.9652   -1.3265 C   0  0  0  0  0  0  0  0  0  0  0  0
  -12.5807    7.2444   -1.1164 C   0  0  0  0  0  0  0  0  0  0  0  0
  -13.5780    8.2515   -0.8248 C   0  0  0  0  0  0  0  0  0  0  0  0
  -14.9688    7.9298   -0.6021 C   0  0  0  0  0  0  0  0  0  0  0  0
  -11.1758    7.4622   -1.1427 C   0  0  0  0  0  0  0  0  0  0  0  0
  -10.0464    6.5604   -1.1277 C   0  0  0  0  0  0  0  0  0  0  0  0
  -10.0170    5.1222   -1.0699 C   0  0  0  0  0  0  0  0  0  0  0  0
  -14.0661   -2.2328    1.4082 C   0  0  0  0  0  0  0  0  0  0  0  0
  -13.3393   -1.0506    1.1196 C   0  0  0  0  0  0  0  0  0  0  0  0
  -13.1280   -3.1964    1.9152 C   0  0  0  0  0  0  0  0  0  0  0  0
  -13.5494   -4.4885    1.7986 C   0  0  0  0  0  0  0  0  0  0  0  0
  -11.7038   -3.0210    2.1850 C   0  0  0  0  0  0  0  0  0  0  0  0
  -11.1037   -1.7998    1.9575 C   0  0  0  0  0  0  0  0  0  0  0  0
  -11.9779   -0.8790    1.4030 C   0  0  0  0  0  0  0  0  0  0  0  0
  -11.4538    0.2074    0.7974 C   0  0  0  0  0  0  0  0  0  0  0  0
  -10.1018    0.4149    0.8005 C   0  0  0  0  0  0  0  0  0  0  0  0
   -9.3982    1.3523    0.2108 C   0  0  0  0  0  0  0  0  0  0  0  0
   -9.8447    2.4485   -0.4150 C   0  0  0  0  0  0  0  0  0  0  0  0
   -8.6793    3.1324   -0.5325 C   0  0  0  0  0  0  0  0  0  0  0  0
   -8.7255    4.4812   -0.8595 C   0  0  0  0  0  0  0  0  0  0  0  0
   -8.0584    1.1555    0.3550 C   0  0  0  0  0  0  0  0  0  0  0  0
   -7.5640    2.3465   -0.1658 C   0  0  0  0  0  0  0  0  0  0  0  0
   -9.6821   -1.5878    1.8885 C   0  0  0  0  0  0  0  0  0  0  0  0
   -9.1744   -0.4354    1.3101 C   0  0  0  0  0  0  0  0  0  0  0  0
  -10.7648   -4.0854    2.2915 C   0  0  0  0  0  0  0  0  0  0  0  0
   -9.3523   -3.8787    2.2802 C   0  0  0  0  0  0  0  0  0  0  0  0
   -8.7381   -2.5823    2.0633 C   0  0  0  0  0  0  0  0  0  0  0  0
   -7.3309   -2.3130    1.7227 C   0  0  0  0  0  0  0  0  0  0  0  0
   -6.7823   -1.0620    1.1089 C   0  0  0  0  0  0  0  0  0  0  0  0
   -7.8432   -0.1101    0.9499 C   0  0  0  0  0  0  0  0  0  0  0  0
  -12.6132   -5.4834    1.8206 C   0  0  0  0  0  0  0  0  0  0  0  0
  -11.2544   -5.3758    2.0378 C   0  0  0  0  0  0  0  0  0  0  0  0
   -6.2858    2.8510   -0.3204 C   0  0  0  0  0  0  0  0  0  0  0  0
   -6.2368    4.2707   -0.7011 C   0  0  0  0  0  0  0  0  0  0  0  0
   -7.4455    5.0982   -0.8208 C   0  0  0  0  0  0  0  0  0  0  0  0
   -5.1515    1.9643   -0.2093 C   0  0  0  0  0  0  0  0  0  0  0  0
   -4.8796    0.5397    0.0636 C   0  0  0  0  0  0  0  0  0  0  0  0
   -5.4351   -0.7852    0.5340 C   0  0  0  0  0  0  0  0  0  0  0  0
   -8.7770    7.2009   -1.0475 C   0  0  0  0  0  0  0  0  0  0  0  0
   -7.5502    6.5187   -0.8641 C   0  0  0  0  0  0  0  0  0  0  0  0
   -3.9501    2.6247   -0.5949 C   0  0  0  0  0  0  0  0  0  0  0  0
   -4.9481    4.7728   -1.0272 C   0  0  0  0  0  0  0  0  0  0  0  0
   -3.8114    3.9710   -0.9430 C   0  0  0  0  0  0  0  0  0  0  0  0
   -2.9182    1.7324   -0.7287 C   0  0  0  0  0  0  0  0  0  0  0  0
   -3.5290    0.5535   -0.3706 C   0  0  0  0  0  0  0  0  0  0  0  0
   -2.7533   -0.5605   -0.5754 C   0  0  0  0  0  0  0  0  0  0  0  0
   -3.2370   -1.7728   -0.3075 C   0  0  0  0  0  0  0  0  0  0  0  0
   -4.4928   -1.9186    0.3048 C   0  0  0  0  0  0  0  0  0  0  0  0
   -4.5286   -3.3070    0.5577 C   0  0  0  0  0  0  0  0  0  0  0  0
   -6.6482   -3.5262    1.8433 C   0  0  0  0  0  0  0  0  0  0  0  0
   -5.4552   -3.8709    1.3163 C   0  0  0  0  0  0  0  0  0  0  0  0
   -3.7253   -4.4033    0.0383 C   0  0  0  0  0  0  0  0  0  0  0  0
   -2.5720   -4.0576   -0.6316 O   0  0  0  0  0  0  0  0  0  0  0  0
   -2.2826   -2.7126   -0.7412 C   0  0  0  0  0  0  0  0  0  0  0  0
  -10.4351   -6.4748    1.6794 C   0  0  0  0  0  0  0  0  0  0  0  0
   -9.0530   -6.3175    1.7536 C   0  0  0  0  0  0  0  0  0  0  0  0
   -8.5613   -5.0318    2.1486 C   0  0  0  0  0  0  0  0  0  0  0  0
   -7.2176   -4.7920    2.0495 C   0  0  0  0  0  0  0  0  0  0  0  0
   -8.1965   -7.3185    1.1790 C   0  0  0  0  0  0  0  0  0  0  0  0
   -8.7140   -8.4858    0.5361 C   0  0  0  0  0  0  0  0  0  0  0  0
   -6.8151   -7.0093    1.0816 C   0  0  0  0  0  0  0  0  0  0  0  0
   -6.4161   -5.7943    1.5948 C   0  0  0  0  0  0  0  0  0  0  0  0
   -5.3100   -5.1867    1.1776 C   0  0  0  0  0  0  0  0  0  0  0  0
   -4.4001   -5.6481    0.2901 C   0  0  0  0  0  0  0  0  0  0  0  0
   -5.8850   -7.6777    0.2485 C   0  0  0  0  0  0  0  0  0  0  0  0
   -4.6167   -7.0247   -0.1054 C   0  0  0  0  0  0  0  0  0  0  0  0
   -7.7332   -9.3155   -0.1033 C   0  0  0  0  0  0  0  0  0  0  0  0
   -6.4188   -8.8475   -0.2384 O   0  0  0  0  0  0  0  0  0  0  0  0
   -6.5825    7.2788   -0.6378 O   0  0  0  0  0  0  0  0  0  0  0  0
   -7.9068  -10.6047   -0.6610 C   0  0  0  0  0  0  0  0  0  0  0  0
   -1.4804   -0.6192   -1.1133 C   0  0  0  0  0  0  0  0  0  0  0  0
   -1.1817   -1.9878   -1.2351 C   0  0  0  0  0  0  0  0  0  0  0  0
   -0.8480    0.6073   -1.4184 C   0  0  0  0  0  0  0  0  0  0  0  0
   -1.5784    1.8132   -1.2108 C   0  0  0  0  0  0  0  0  0  0  0  0
  -34.5440   13.6107   -0.1195 O   0  0  0  0  0  0  0  0  0  0  0  0
  -34.4042   -6.9329   -4.9299 O   0  0  0  0  0  0  0  0  0  0  0  0
   -4.7163    5.9036   -1.5100 O   0  0  0  0  0  0  0  0  0  0  0  0
    0.3136    0.6326   -1.8838 O   0  0  0  0  0  0  0  0  0  0  0  0
  -32.4233   17.7081   -1.3959 O   0  0  0  0  0  0  0  0  0  0  0  0
  -22.6994   12.8207   -1.2591 O   0  0  0  0  0  0  0  0  0  0  0  0
  -28.6096   -8.9435   -6.0683 O   0  0  0  0  0  0  0  0  0  0  0  0
  -25.6804   16.4210   -2.6773 O   0  0  0  0  0  0  0  0  0  0  0  0
  -13.2407    9.4500   -0.6828 O   0  0  0  0  0  0  0  0  0  0  0  0
  -33.8106   15.7587   -0.7787 H   0  0  0  0  0  0  0  0  0  0  0  0
  -30.1000   17.0625   -1.9744 H   0  0  0  0  0  0  0  0  0  0  0  0
  -28.1107   16.6221   -2.5931 H   0  0  0  0  0  0  0  0  0  0  0  0
  -34.2507    2.6104   -0.3837 H   0  0  0  0  0  0  0  0  0  0  0  0
  -21.9425    9.5264    1.9878 H   0  0  0  0  0  0  0  0  0  0  0  0
  -32.5961    6.7262    0.8274 H   0  0  0  0  0  0  0  0  0  0  0  0
  -34.1972   11.3231    0.1548 H   0  0  0  0  0  0  0  0  0  0  0  0
  -23.8655   14.8143   -2.0701 H   0  0  0  0  0  0  0  0  0  0  0  0
  -19.1485  -13.4393    5.2915 H   0  0  0  0  0  0  0  0  0  0  0  0
  -22.9765  -12.6680    6.7110 H   0  0  0  0  0  0  0  0  0  0  0  0
  -26.9561  -11.0201    5.0706 H   0  0  0  0  0  0  0  0  0  0  0  0
  -24.9559  -11.9142    5.9606 H   0  0  0  0  0  0  0  0  0  0  0  0
  -21.2390    7.4647    2.3791 H   0  0  0  0  0  0  0  0  0  0  0  0
  -29.1755   -7.8647    1.3879 H   0  0  0  0  0  0  0  0  0  0  0  0
  -28.1858   -4.5222   -1.9291 H   0  0  0  0  0  0  0  0  0  0  0  0
  -33.2116    3.5558   -3.6110 H   0  0  0  0  0  0  0  0  0  0  0  0
  -34.6589    2.7818   -5.2245 H   0  0  0  0  0  0  0  0  0  0  0  0
  -37.2900   -2.0952   -2.3299 H   0  0  0  0  0  0  0  0  0  0  0  0
  -35.8808   -3.8445   -1.9913 H   0  0  0  0  0  0  0  0  0  0  0  0
  -34.6184   -5.2199   -3.3246 H   0  0  0  0  0  0  0  0  0  0  0  0
  -33.4236   -8.8873   -6.0706 H   0  0  0  0  0  0  0  0  0  0  0  0
  -31.1084   -9.3516   -6.3475 H   0  0  0  0  0  0  0  0  0  0  0  0
  -27.0548   -7.1167   -5.2903 H   0  0  0  0  0  0  0  0  0  0  0  0
  -27.7298   -5.0405   -4.3287 H   0  0  0  0  0  0  0  0  0  0  0  0
  -19.3220  -13.8176    2.9796 H   0  0  0  0  0  0  0  0  0  0  0  0
   -7.9206  -15.4715   -1.8230 H   0  0  0  0  0  0  0  0  0  0  0  0
  -11.5819  -17.4539   -1.3147 H   0  0  0  0  0  0  0  0  0  0  0  0
  -18.3266  -15.2790    1.6383 H   0  0  0  0  0  0  0  0  0  0  0  0
  -14.3502  -16.6567   -0.4226 H   0  0  0  0  0  0  0  0  0  0  0  0
   -9.2113  -17.4586   -1.8945 H   0  0  0  0  0  0  0  0  0  0  0  0
  -36.9000    1.6321   -5.2511 H   0  0  0  0  0  0  0  0  0  0  0  0
  -18.5912    4.4697    1.6623 H   0  0  0  0  0  0  0  0  0  0  0  0
  -15.6215    8.6611   -0.3124 H   0  0  0  0  0  0  0  0  0  0  0  0
  -10.9506    8.4614   -1.1260 H   0  0  0  0  0  0  0  0  0  0  0  0
   -8.7319    8.2261   -1.0820 H   0  0  0  0  0  0  0  0  0  0  0  0
   -2.8923    4.3539   -1.1875 H   0  0  0  0  0  0  0  0  0  0  0  0
   -3.9563   -7.4898   -0.7283 H   0  0  0  0  0  0  0  0  0  0  0  0
   -7.0149  -10.9426   -1.0284 H   0  0  0  0  0  0  0  0  0  0  0  0
   -0.3261   -2.3863   -1.6223 H   0  0  0  0  0  0  0  0  0  0  0  0
   -1.1598    2.7158   -1.4424 H   0  0  0  0  0  0  0  0  0  0  0  0
  1  2  1  0  0  0  0
  2  3  1  0  0  0  0
  3  4  2  0  0  0  0
  4  5  1  0  0  0  0
  5  6  1  0  0  0  0
  1  6  2  0  0  0  0
  7  8  1  0  0  0  0
  8  9  1  0  0  0  0
  9 10  1  0  0  0  0
  1 10  1  0  0  0  0
  2  7  2  0  0  0  0
 11 12  1  0  0  0  0
 12 13  1  0  0  0  0
 13 14  1  0  0  0  0
  9 11  2  0  0  0  0
 10 14  2  0  0  0  0
 16 17  1  0  0  0  0
 17 18  2  0  0  0  0
 18 19  1  0  0  0  0
 19 20  1  0  0  0  0
 15 16  2  0  0  0  0
 15 20  1  0  0  0  0
 11 15  1  0  0  0  0
 22 23  2  0  0  0  0
 21 22  1  0  0  0  0
 18 21  1  0  0  0  0
 24 25  1  0  0  0  0
 26 27  1  0  0  0  0
 27 28  2  0  0  0  0
 28 29  1  0  0  0  0
 29 30  1  0  0  0  0
 32 33  2  0  0  0  0
 33 34  1  0  0  0  0
 34 35  1  0  0  0  0
 35 36  2  0  0  0  0
 31 32  1  0  0  0  0
 31 36  1  0  0  0  0
 29 31  2  0  0  0  0
 37 38  2  0  0  0  0
 38 39  1  0  0  0  0
  7 37  1  0  0  0  0
  8 39  2  0  0  0  0
 40 41  2  0  0  0  0
 41 42  1  0  0  0  0
 35 40  1  0  0  0  0
 36 42  1  0  0  0  0
 43 44  2  0  0  0  0
 44 45  1  0  0  0  0
 33 43  1  0  0  0  0
 34 45  2  0  0  0  0
 46 47  2  0  0  0  0
 47 48  1  0  0  0  0
 48 49  1  0  0  0  0
 27 49  1  0  0  0  0
 28 46  1  0  0  0  0
 16 51  1  0  0  0  0
 17 50  1  0  0  0  0
 50 52  1  0  0  0  0
 22 53  1  0  0  0  0
 53 52  2  0  0  0  0
 26 54  1  0  0  0  0
 49 55  2  0  0  0  0
 54 56  1  0  0  0  0
 56 57  2  0  0  0  0
 57 55  1  0  0  0  0
 46 58  1  0  0  0  0
 58 59  2  0  0  0  0
 59 32  1  0  0  0  0
 20 60  2  0  0  0  0
 60 39  1  0  0  0  0
  3 61  1  0  0  0  0
 37 62  1  0  0  0  0
 62 63  2  0  0  0  0
 63 61  1  0  0  0  0
 64 65  1  0  0  0  0
 66 67  2  0  0  0  0
 67 68  1  0  0  0  0
 62 68  1  0  0  0  0
 38 66  1  0  0  0  0
 40 64  1  0  0  0  0
 65 45  1  0  0  0  0
 60 69  1  0  0  0  0
 70 25  1  0  0  0  0
 51 71  1  0  0  0  0
 12 71  2  0  0  0  0
 70 69  1  0  0  0  0
 24 54  2  0  0  0  0
 30 72  1  0  0  0  0
 72 73  1  0  0  0  0
 42 72  2  0  0  0  0
 69 74  2  0  0  0  0
 66 74  1  0  0  0  0
 74 56  1  0  0  0  0
 57 67  1  0  0  0  0
 19 70  2  0  0  0  0
 75 76  1  0  0  0  0
 76 77  1  0  0  0  0
 77 78  2  0  0  0  0
 78 79  1  0  0  0  0
 79 80  1  0  0  0  0
 75 80  2  0  0  0  0
 81 82  1  0  0  0  0
 82 83  1  0  0  0  0
 83 84  2  0  0  0  0
 75 84  1  0  0  0  0
 76 81  2  0  0  0  0
 85 86  2  0  0  0  0
 86 87  1  0  0  0  0
 87 88  2  0  0  0  0
 83 85  1  0  0  0  0
 84 88  1  0  0  0  0
 90 91  1  0  0  0  0
 91 92  1  0  0  0  0
 92 93  1  0  0  0  0
 93 94  2  0  0  0  0
 89 90  2  0  0  0  0
 89 94  1  0  0  0  0
 85 89  1  0  0  0  0
 96 97  1  0  0  0  0
 97 98  1  0  0  0  0
 98 99  1  0  0  0  0
 99100  2  0  0  0  0
 95 96  1  0  0  0  0
 92 95  2  0  0  0  0
102101  1  0  0  0  0
102103  2  0  0  0  0
103104  1  0  0  0  0
 99101  1  0  0  0  0
100104  1  0  0  0  0
106107  2  0  0  0  0
107108  1  0  0  0  0
108109  2  0  0  0  0
109110  1  0  0  0  0
105106  1  0  0  0  0
105110  2  0  0  0  0
102105  1  0  0  0  0
112113  1  0  0  0  0
111114  2  0  0  0  0
109111  1  0  0  0  0
115116  2  0  0  0  0
116117  1  0  0  0  0
 81115  1  0  0  0  0
 82117  2  0  0  0  0
118119  1  0  0  0  0
101118  2  0  0  0  0
120121  1  0  0  0  0
121122  2  0  0  0  0
113120  2  0  0  0  0
114122  1  0  0  0  0
123124  2  0  0  0  0
112124  1  0  0  0  0
125126  1  0  0  0  0
107127  1  0  0  0  0
108125  1  0  0  0  0
128129  1  0  0  0  0
129130  2  0  0  0  0
 90130  1  0  0  0  0
128131  1  0  0  0  0
 96132  2  0  0  0  0
132131  1  0  0  0  0
106133  1  0  0  0  0
127134  2  0  0  0  0
 94135  1  0  0  0  0
135117  1  0  0  0  0
 77136  1  0  0  0  0
115137  1  0  0  0  0
137138  1  0  0  0  0
138136  1  0  0  0  0
119 98  2  0  0  0  0
139140  2  0  0  0  0
141142  2  0  0  0  0
142143  1  0  0  0  0
137143  2  0  0  0  0
116141  1  0  0  0  0
120139  1  0  0  0  0
140124  1  0  0  0  0
135144  2  0  0  0  0
145104  2  0  0  0  0
130146  1  0  0  0  0
 86146  1  0  0  0  0
145144  1  0  0  0  0
103133  1  0  0  0  0
110147  1  0  0  0  0
147148  2  0  0  0  0
118148  1  0  0  0  0
122147  1  0  0  0  0
 93145  1  0  0  0  0
 41149  1  0  0  0  0
 73150  1  0  0  0  0
150151  1  0  0  0  0
152151  1  0  0  0  0
139152  1  0  0  0  0
121153  1  0  0  0  0
151153  2  0  0  0  0
149150  2  0  0  0  0
153154  1  0  0  0  0
148154  1  0  0  0  0
154155  2  0  0  0  0
155149  1  0  0  0  0
155156  1  0  0  0  0
 64156  2  0  0  0  0
156119  1  0  0  0  0
 23140  1  0  0  0  0
 53123  1  0  0  0  0
 97 65  2  0  0  0  0
 59157  1  0  0  0  0
157158  2  0  0  0  0
 43159  1  0  0  0  0
159158  1  0  0  0  0
157160  1  0  0  0  0
 58161  1  0  0  0  0
161162  2  0  0  0  0
162163  1  0  0  0  0
160163  1  0  0  0  0
164165  2  0  0  0  0
165166  1  0  0  0  0
166158  1  0  0  0  0
166167  2  0  0  0  0
167168  1  0  0  0  0
168169  1  0  0  0  0
169159  2  0  0  0  0
169170  1  0  0  0  0
170171  2  0  0  0  0
171172  1  0  0  0  0
168173  2  0  0  0  0
172173  1  0  0  0  0
173174  1  0  0  0  0
170 44  1  0  0  0  0
174175  1  0  0  0  0
175176  2  0  0  0  0
172177  2  0  0  0  0
176177  1  0  0  0  0
177178  1  0  0  0  0
178179  1  0  0  0  0
171180  1  0  0  0  0
180179  2  0  0  0  0
181182  1  0  0  0  0
182183  1  0  0  0  0
183184  1  0  0  0  0
185186  1  0  0  0  0
186187  1  0  0  0  0
187188  2  0  0  0  0
181188  1  0  0  0  0
182185  2  0  0  0  0
189190  1  0  0  0  0
190191  1  0  0  0  0
191192  2  0  0  0  0
187189  1  0  0  0  0
188192  1  0  0  0  0
194195  2  0  0  0  0
195196  1  0  0  0  0
196197  2  0  0  0  0
197198  1  0  0  0  0
193194  1  0  0  0  0
193198  1  0  0  0  0
189193  2  0  0  0  0
199200  1  0  0  0  0
202203  2  0  0  0  0
203204  1  0  0  0  0
185202  1  0  0  0  0
186204  2  0  0  0  0
194205  1  0  0  0  0
201206  1  0  0  0  0
206208  2  0  0  0  0
208209  1  0  0  0  0
209207  2  0  0  0  0
198210  2  0  0  0  0
210204  1  0  0  0  0
183211  2  0  0  0  0
202212  1  0  0  0  0
212213  1  0  0  0  0
213211  1  0  0  0  0
214215  2  0  0  0  0
215216  1  0  0  0  0
212216  2  0  0  0  0
203214  1  0  0  0  0
210217  1  0  0  0  0
218200  2  0  0  0  0
205219  1  0  0  0  0
190219  2  0  0  0  0
218217  1  0  0  0  0
199206  1  0  0  0  0
217220  2  0  0  0  0
214220  1  0  0  0  0
220208  1  0  0  0  0
209215  1  0  0  0  0
197218  1  0  0  0  0
181138  2  0  0  0  0
184136  2  0  0  0  0
143192  1  0  0  0  0
191134  1  0  0  0  0
207221  1  0  0  0  0
160222  2  0  0  0  0
222164  1  0  0  0  0
163223  2  0  0  0  0
223224  1  0  0  0  0
222224  1  0  0  0  0
221201  2  0  0  0  0
141144  1  0  0  0  0
 21 25  2  0  0  0  0
142134  1  0  0  0  0
 30 26  2  0  0  0  0
219225  1  0  0  0  0
225226  1  0  0  0  0
226127  1  0  0  0  0
126226  2  0  0  0  0
 48227  2  0  0  0  0
 50228  2  0  0  0  0
 79229  2  0  0  0  0
131230  2  0  0  0  0
133231  2  0  0  0  0
199232  2  0  0  0  0
213233  2  0  0  0  0
224234  2  0  0  0  0
152235  2  0  0  0  0
235 23  1  0  0  0  0
 73236  2  0  0  0  0
235236  1  0  0  0  0
236 24  1  0  0  0  0
111237  1  0  0  0  0
125238  2  0  0  0  0
237238  1  0  0  0  0
237239  2  0  0  0  0
239240  1  0  0  0  0
238241  1  0  0  0  0
241242  2  0  0  0  0
240242  1  0  0  0  0
240243  2  0  0  0  0
239244  1  0  0  0  0
244245  2  0  0  0  0
243245  1  0  0  0  0
243246  1  0  0  0  0
246247  1  0  0  0  0
247248  2  0  0  0  0
242248  1  0  0  0  0
248249  1  0  0  0  0
241250  1  0  0  0  0
250251  2  0  0  0  0
251249  1  0  0  0  0
249252  2  0  0  0  0
252253  1  0  0  0  0
253254  1  0  0  0  0
254247  1  0  0  0  0
113255  1  0  0  0  0
114255  1  0  0  0  0
255256  2  0  0  0  0
256244  1  0  0  0  0
245257  1  0  0  0  0
257258  1  0  0  0  0
246259  2  0  0  0  0
259258  1  0  0  0  0
259260  1  0  0  0  0
260254  2  0  0  0  0
260261  1  0  0  0  0
261262  1  0  0  0  0
258263  2  0  0  0  0
263262  1  0  0  0  0
261264  2  0  0  0  0
264265  1  0  0  0  0
253266  2  0  0  0  0
266265  1  0  0  0  0
126267  1  0  0  0  0
267268  2  0  0  0  0
268250  1  0  0  0  0
267269  1  0  0  0  0
225270  2  0  0  0  0
270269  1  0  0  0  0
269271  2  0  0  0  0
271272  1  0  0  0  0
272273  1  0  0  0  0
268273  1  0  0  0  0
273274  2  0  0  0  0
274251  1  0  0  0  0
274275  1  0  0  0  0
275276  1  0  0  0  0
252277  1  0  0  0  0
276277  2  0  0  0  0
277278  1  0  0  0  0
278279  2  0  0  0  0
279266  1  0  0  0  0
276280  1  0  0  0  0
280281  1  0  0  0  0
281278  1  0  0  0  0
272282  2  0  0  0  0
282283  1  0  0  0  0
283275  2  0  0  0  0
271284  1  0  0  0  0
284285  1  0  0  0  0
285286  2  0  0  0  0
286282  1  0  0  0  0
286287  1  0  0  0  0
287288  2  0  0  0  0
283289  1  0  0  0  0
288289  1  0  0  0  0
270290  1  0  0  0  0
290291  1  0  0  0  0
291284  2  0  0  0  0
289280  2  0  0  0  0
281292  2  0  0  0  0
292293  1  0  0  0  0
279294  1  0  0  0  0
294293  2  0  0  0  0
292295  1  0  0  0  0
295296  2  0  0  0  0
296297  1  0  0  0  0
288297  1  0  0  0  0
265298  2  0  0  0  0
298299  1  0  0  0  0
299294  1  0  0  0  0
295300  1  0  0  0  0
293301  1  0  0  0  0
301302  1  0  0  0  0
302300  2  0  0  0  0
300303  1  0  0  0  0
303304  1  0  0  0  0
296304  1  0  0  0  0
304305  2  0  0  0  0
305306  1  0  0  0  0
297307  2  0  0  0  0
307306  1  0  0  0  0
307308  1  0  0  0  0
287309  1  0  0  0  0
309310  2  0  0  0  0
310308  1  0  0  0  0
308311  2  0  0  0  0
311312  1  0  0  0  0
306313  2  0  0  0  0
313312  1  0  0  0  0
205290  2  0  0  0  0
291314  1  0  0  0  0
195314  1  0  0  0  0
314315  2  0  0  0  0
285316  1  0  0  0  0
316315  1  0  0  0  0
316317  2  0  0  0  0
317309  1  0  0  0  0
315318  1  0  0  0  0
318319  2  0  0  0  0
196319  1  0  0  0  0
318320  1  0  0  0  0
320321  1  0  0  0  0
317321  1  0  0  0  0
321322  2  0  0  0  0
310322  1  0  0  0  0
322323  1  0  0  0  0
323311  1  0  0  0  0
320324  2  0  0  0  0
324325  1  0  0  0  0
325323  2  0  0  0  0
319326  1  0  0  0  0
326327  1  0  0  0  0
327324  1  0  0  0  0
299328  2  0  0  0  0
326329  2  0  0  0  0
200329  1  0  0  0  0
330305  1  0  0  0  0
313331  1  0  0  0  0
330331  2  0  0  0  0
330332  1  0  0  0  0
303333  2  0  0  0  0
333332  1  0  0  0  0
 95100  1  0  0  0  0
 61334  2  0  0  0  0
174335  2  0  0  0  0
 91128  2  0  0  0  0
301336  2  0  0  0  0
332337  2  0  0  0  0
  5338  2  0  0  0  0
 51339  2  0  0  0  0
178340  2  0  0  0  0
 13341  2  0  0  0  0
262342  2  0  0  0  0
  4343  1  0  0  0  0
  6344  1  0  0  0  0
 14345  1  0  0  0  0
 47346  1  0  0  0  0
 52347  1  0  0  0  0
 55348  1  0  0  0  0
 63349  1  0  0  0  0
 71350  1  0  0  0  0
 78351  1  0  0  0  0
 80352  1  0  0  0  0
 87353  1  0  0  0  0
 88354  1  0  0  0  0
123355  1  0  0  0  0
129356  1  0  0  0  0
132357  1  0  0  0  0
161358  1  0  0  0  0
162359  1  0  0  0  0
164360  1  0  0  0  0
165361  1  0  0  0  0
167362  1  0  0  0  0
175363  1  0  0  0  0
176364  1  0  0  0  0
179365  1  0  0  0  0
180366  1  0  0  0  0
184367  1  0  0  0  0
201368  1  0  0  0  0
207369  1  0  0  0  0
211370  1  0  0  0  0
216371  1  0  0  0  0
221372  1  0  0  0  0
223373  1  0  0  0  0
256374  1  0  0  0  0
263375  1  0  0  0  0
264376  1  0  0  0  0
298377  1  0  0  0  0
302378  1  0  0  0  0
325379  1  0  0  0  0
329380  1  0  0  0  0
331381  1  0  0  0  0
333382  1  0  0  0  0
M  END
