
  Mrv2101 10312211463D          

 43 46  0  0  0  0            999 V2000
    6.4725    6.9976    1.5745 C   0  0  0  0  0  0  0  0  0  0  0  0
    5.3524    6.1447    1.5216 C   0  0  0  0  0  0  0  0  0  0  0  0
    5.3738    4.9454    0.7685 C   0  0  0  0  0  0  0  0  0  0  0  0
    6.5531    4.5965    0.0533 C   0  0  0  0  0  0  0  0  0  0  0  0
    7.6764    5.4604    0.1123 C   0  0  0  0  0  0  0  0  0  0  0  0
    7.6505    6.6567    0.8633 C   0  0  0  0  0  0  0  0  0  0  0  0
    6.5758    3.3861   -0.7071 C   0  0  0  0  0  0  0  0  0  0  0  0
    4.2311    4.0869    0.7182 C   0  0  0  0  0  0  0  0  0  0  0  0
    4.2541    2.8785   -0.0465 C   0  0  0  0  0  0  0  0  0  0  0  0
    3.1966    4.3990    1.3593 O   0  0  0  0  0  0  0  0  0  0  0  0
    7.6154    3.0722   -1.3368 O   0  0  0  0  0  0  0  0  0  0  0  0
    5.4316    2.5277   -0.7595 C   0  0  0  0  0  0  0  0  0  0  0  0
    3.1259    2.0206   -0.1052 C   0  0  0  0  0  0  0  0  0  0  0  0
    3.1178    0.8143   -0.8513 C   0  0  0  0  0  0  0  0  0  0  0  0
    4.3053    0.4961   -1.5533 C   0  0  0  0  0  0  0  0  0  0  0  0
    5.4379    1.3266   -1.5066 C   0  0  0  0  0  0  0  0  0  0  0  0
    2.0198   -0.0690   -0.9168 C   0  0  0  0  0  0  0  0  0  0  0  0
    0.8124    0.0953   -0.3394 C   0  0  0  0  0  0  0  0  0  0  0  0
   -0.2708   -0.8689   -0.4063 C   0  0  2  0  0  0  0  0  0  0  0  0
   -0.1666   -1.7715    0.6895 O   0  0  0  0  0  0  0  0  0  0  0  0
    6.4341    8.1884    2.3277 C   0  0  0  0  0  0  0  0  0  0  0  0
    7.5521    9.0340    2.3763 C   0  0  0  0  0  0  0  0  0  0  0  0
    8.7461    8.7261    1.6790 C   0  0  0  0  0  0  0  0  0  0  0  0
    8.7692    7.5230    0.9240 C   0  0  0  0  0  0  0  0  0  0  0  0
    9.8672    9.6152    1.7534 C   0  0  0  0  0  0  0  0  0  0  0  0
    9.7958   10.6666    2.4350 O   0  0  0  0  0  0  0  0  0  0  0  0
   11.1569    9.3870    1.0650 C   0  0  0  0  0  0  0  0  0  0  0  0
    4.5094    6.4073    2.0423 H   0  0  0  0  0  0  0  0  0  0  0  0
    8.5290    5.2190   -0.3995 H   0  0  0  0  0  0  0  0  0  0  0  0
    2.2942    2.2919    0.4159 H   0  0  0  0  0  0  0  0  0  0  0  0
    4.3644   -0.3572   -2.1155 H   0  0  0  0  0  0  0  0  0  0  0  0
    6.2715    1.0395   -2.0278 H   0  0  0  0  0  0  0  0  0  0  0  0
    2.1462   -0.9098   -1.4352 H   0  0  0  0  0  0  0  0  0  0  0  0
    0.6277    0.9084    0.1911 H   0  0  0  0  0  0  0  0  0  0  0  0
   -0.2709   -1.4312   -1.3450 H   0  0  0  0  0  0  0  0  0  0  0  0
   -1.2286   -0.3474   -0.3240 H   0  0  0  0  0  0  0  0  0  0  0  0
   -0.9934   -2.2962    0.6569 H   0  0  0  0  0  0  0  0  0  0  0  0
    5.5918    8.4508    2.8463 H   0  0  0  0  0  0  0  0  0  0  0  0
    7.4747    9.8851    2.9351 H   0  0  0  0  0  0  0  0  0  0  0  0
    9.6118    7.2646    0.4059 H   0  0  0  0  0  0  0  0  0  0  0  0
   11.8656   10.1955    1.2651 H   0  0  0  0  0  0  0  0  0  0  0  0
   11.6019    8.4532    1.4098 H   0  0  0  0  0  0  0  0  0  0  0  0
   10.9987    9.3338   -0.0126 H   0  0  0  0  0  0  0  0  0  0  0  0
  2  3  2  0  0  0  0
  3  4  1  0  0  0  0
  4  5  2  0  0  0  0
  5  6  1  0  0  0  0
  1  2  1  0  0  0  0
  1  6  1  0  0  0  0
  4  7  1  0  0  0  0
  3  8  1  0  0  0  0
  8  9  1  0  0  0  0
  8 10  2  0  0  0  0
  7 11  2  0  0  0  0
  7 12  1  0  0  0  0
 13 14  1  0  0  0  0
 14 15  2  0  0  0  0
 15 16  1  0  0  0  0
 12 16  2  0  0  0  0
  9 13  2  0  0  0  0
 12  9  1  0  0  0  0
 14 17  1  0  0  0  0
 17 18  2  0  0  0  0
 18 19  1  0  0  0  0
 19 20  1  0  0  0  0
 21 22  1  0  0  0  0
 22 23  2  0  0  0  0
 23 24  1  0  0  0  0
  1 21  2  0  0  0  0
  6 24  2  0  0  0  0
 23 25  1  0  0  0  0
 25 26  2  0  0  0  0
 25 27  1  0  0  0  0
  2 28  1  0  0  0  0
  5 29  1  0  0  0  0
 13 30  1  0  0  0  0
 15 31  1  0  0  0  0
 16 32  1  0  0  0  0
 17 33  1  0  0  0  0
 18 34  1  0  0  0  0
 19 35  1  0  0  0  0
 19 36  1  0  0  0  0
 20 37  1  0  0  0  0
 21 38  1  0  0  0  0
 22 39  1  0  0  0  0
 24 40  1  0  0  0  0
 27 41  1  0  0  0  0
 27 42  1  0  0  0  0
 27 43  1  0  0  0  0
M  END
