
  Mrv2101 10312211463D          

 58 65  0  0  0  0            999 V2000
   -6.0594    4.3310    0.1858 C   0  0  0  0  0  0  0  0  0  0  0  0
   -5.3379    3.6328   -0.8427 C   0  0  0  0  0  0  0  0  0  0  0  0
   -5.7194    3.6381   -2.2193 C   0  0  0  0  0  0  0  0  0  0  0  0
   -6.8963    4.4019   -2.5166 C   0  0  0  0  0  0  0  0  0  0  0  0
   -7.6515    5.1170   -1.5208 C   0  0  0  0  0  0  0  0  0  0  0  0
   -7.2252    5.0780   -0.1561 C   0  0  0  0  0  0  0  0  0  0  0  0
   -7.3025    4.4337   -3.8586 C   0  0  0  0  0  0  0  0  0  0  0  0
   -4.9574    2.9170   -3.2424 C   0  0  0  0  0  0  0  0  0  0  0  0
   -5.4577    3.0139   -4.6213 C   0  0  0  0  0  0  0  0  0  0  0  0
   -6.6351    3.7779   -4.8908 C   0  0  0  0  0  0  0  0  0  0  0  0
   -4.9400    2.4396   -5.8313 C   0  0  0  0  0  0  0  0  0  0  0  0
   -5.4690    2.5890   -7.1378 C   0  0  0  0  0  0  0  0  0  0  0  0
   -6.6393    3.3510   -7.3182 C   0  0  0  0  0  0  0  0  0  0  0  0
   -7.2098    3.9361   -6.1826 C   0  0  0  0  0  0  0  0  0  0  0  0
   -4.1906    2.9051   -0.4582 C   0  0  0  0  0  0  0  0  0  0  0  0
   -3.8132    2.8873    0.8542 O   0  0  0  0  0  0  0  0  0  0  0  0
   -4.4533    3.5245    1.8538 C   0  0  0  0  0  0  0  0  0  0  0  0
   -5.5908    4.2584    1.5308 C   0  0  0  0  0  0  0  0  0  0  0  0
   -3.7768    2.1847   -2.7706 C   0  0  0  0  0  0  0  0  0  0  0  0
   -3.4106    2.1901   -1.3812 C   0  0  0  0  0  0  0  0  0  0  0  0
   -2.8582    1.4078   -3.5423 C   0  0  0  0  0  0  0  0  0  0  0  0
   -1.7374    0.7212   -3.0553 C   0  0  0  0  0  0  0  0  0  0  0  0
   -1.4022    0.7448   -1.6963 C   0  0  0  0  0  0  0  0  0  0  0  0
   -2.2667    1.4919   -0.8733 C   0  0  0  0  0  0  0  0  0  0  0  0
   -0.2670    0.0316   -1.2733 C   0  0  0  0  0  0  0  0  0  0  0  0
    0.2484   -0.0434   -0.0371 C   0  0  0  0  0  0  0  0  0  0  0  0
    1.3241   -0.7868    0.1877 O   0  0  0  0  0  0  0  0  0  0  0  0
   -4.0212    3.4460    3.0261 O   0  0  0  0  0  0  0  0  0  0  0  0
   -4.8626    1.9840   -8.2704 C   0  0  0  0  0  0  0  0  0  0  0  0
   -5.4023    2.1285   -9.5712 C   0  0  0  0  0  0  0  0  0  0  0  0
   -6.5812    2.8966   -9.7174 C   0  0  0  0  0  0  0  0  0  0  0  0
   -7.2032    3.4956   -8.6074 C   0  0  0  0  0  0  0  0  0  0  0  0
   -8.3463    4.2019   -8.8108 O   0  0  0  0  0  0  0  0  0  0  0  0
   -4.7823    1.5146  -10.6941 C   0  0  0  0  0  0  0  0  0  0  0  0
   -5.2735    1.5836  -11.8447 O   0  0  0  0  0  0  0  0  0  0  0  0
   -3.6275    0.8129  -10.5783 O   0  0  0  0  0  0  0  0  0  0  0  0
   -7.9917    5.7925    0.8169 C   0  0  0  0  0  0  0  0  0  0  0  0
   -9.1360    6.5255    0.4865 C   0  0  0  0  0  0  0  0  0  0  0  0
   -9.5570    6.5714   -0.8378 C   0  0  0  0  0  0  0  0  0  0  0  0
   -8.8289    5.8835   -1.8145 C   0  0  0  0  0  0  0  0  0  0  0  0
   -8.1234    4.9590   -4.1317 H   0  0  0  0  0  0  0  0  0  0  0  0
   -4.1469    1.8647   -5.8515 H   0  0  0  0  0  0  0  0  0  0  0  0
   -8.0626    4.4905   -6.3084 H   0  0  0  0  0  0  0  0  0  0  0  0
   -6.0444    4.7229    2.3123 H   0  0  0  0  0  0  0  0  0  0  0  0
   -2.9125    1.2708   -4.5112 H   0  0  0  0  0  0  0  0  0  0  0  0
   -1.1599    0.1910   -3.7212 H   0  0  0  0  0  0  0  0  0  0  0  0
   -2.0484    1.5147    0.1229 H   0  0  0  0  0  0  0  0  0  0  0  0
    0.2297   -0.4853   -1.9654 H   0  0  0  0  0  0  0  0  0  0  0  0
   -0.1436    0.4407    0.7315 H   0  0  0  0  0  0  0  0  0  0  0  0
    2.0499   -0.1452    0.3357 H   0  0  0  0  0  0  0  0  0  0  0  0
   -4.0134    1.4246   -8.1398 H   0  0  0  0  0  0  0  0  0  0  0  0
   -7.0035    3.0298  -10.6403 H   0  0  0  0  0  0  0  0  0  0  0  0
   -9.0278    3.5246   -9.0082 H   0  0  0  0  0  0  0  0  0  0  0  0
   -3.2279    0.3862  -11.3660 H   0  0  0  0  0  0  0  0  0  0  0  0
   -7.7579    5.8104    1.8045 H   0  0  0  0  0  0  0  0  0  0  0  0
   -9.6621    7.0240    1.2096 H   0  0  0  0  0  0  0  0  0  0  0  0
  -10.3935    7.1047   -1.0888 H   0  0  0  0  0  0  0  0  0  0  0  0
   -9.2188    5.9831   -2.7456 H   0  0  0  0  0  0  0  0  0  0  0  0
  3  4  1  0  0  0  0
  4  5  1  0  0  0  0
  1  6  1  0  0  0  0
  4  7  2  0  0  0  0
  8  9  1  0  0  0  0
  7 10  1  0  0  0  0
 11 12  1  0  0  0  0
 12 13  2  0  0  0  0
 13 14  1  0  0  0  0
 10 14  2  0  0  0  0
  9 11  2  0  0  0  0
 10  9  1  0  0  0  0
 15 16  1  0  0  0  0
 16 17  1  0  0  0  0
 17 18  1  0  0  0  0
  1 18  2  0  0  0  0
  2 15  2  0  0  0  0
  1  2  1  0  0  0  0
  8 19  1  0  0  0  0
  3  8  2  0  0  0  0
 20 15  1  0  0  0  0
  3  2  1  0  0  0  0
 21 22  1  0  0  0  0
 22 23  2  0  0  0  0
 23 24  1  0  0  0  0
 20 24  2  0  0  0  0
 19 21  2  0  0  0  0
 20 19  1  0  0  0  0
 25 26  2  0  0  0  0
 26 27  1  0  0  0  0
 17 28  2  0  0  0  0
 29 30  2  0  0  0  0
 30 31  1  0  0  0  0
 31 32  2  0  0  0  0
 13 32  1  0  0  0  0
 12 29  1  0  0  0  0
 32 33  1  0  0  0  0
 34 35  2  0  0  0  0
 34 36  1  0  0  0  0
 23 25  1  0  0  0  0
 30 34  1  0  0  0  0
 37 38  1  0  0  0  0
 38 39  2  0  0  0  0
 39 40  1  0  0  0  0
  5 40  2  0  0  0  0
  6 37  2  0  0  0  0
  5  6  1  0  0  0  0
  7 41  1  0  0  0  0
 11 42  1  0  0  0  0
 14 43  1  0  0  0  0
 18 44  1  0  0  0  0
 21 45  1  0  0  0  0
 22 46  1  0  0  0  0
 24 47  1  0  0  0  0
 25 48  1  0  0  0  0
 26 49  1  0  0  0  0
 27 50  1  0  0  0  0
 29 51  1  0  0  0  0
 31 52  1  0  0  0  0
 33 53  1  0  0  0  0
 36 54  1  0  0  0  0
 37 55  1  0  0  0  0
 38 56  1  0  0  0  0
 39 57  1  0  0  0  0
 40 58  1  0  0  0  0
M  END
