
  Mrv2101 10312211263D          

106114  0  0  0  0            999 V2000
    0.7799    3.9881   11.1715 C   0  0  0  0  0  0  0  0  0  0  0  0
    1.9012    4.2153   10.3520 C   0  0  0  0  0  0  0  0  0  0  0  0
    1.7595    4.1040    8.9550 C   0  0  0  0  0  0  0  0  0  0  0  0
    0.5011    3.9079    8.3299 C   0  0  0  0  0  0  0  0  0  0  0  0
   -0.6310    3.8017    9.1942 C   0  0  0  0  0  0  0  0  0  0  0  0
   -0.4931    3.7471   10.6080 C   0  0  0  0  0  0  0  0  0  0  0  0
   -1.9376    3.7295    8.6587 C   0  0  0  0  0  0  0  0  0  0  0  0
   -3.0456    3.7018    9.5047 C   0  0  0  0  0  0  0  0  0  0  0  0
   -2.9575    3.4674   10.8348 C   0  0  0  0  0  0  0  0  0  0  0  0
   -1.6520    3.4323   11.3985 C   0  0  0  0  0  0  0  0  0  0  0  0
   -4.1284    3.3017   11.6235 C   0  0  0  0  0  0  0  0  0  0  0  0
   -4.0474    3.6981   12.8125 O   0  0  0  0  0  0  0  0  0  0  0  0
   -5.4142    2.7782   11.1993 C   0  0  0  0  0  0  0  0  0  0  0  0
   -5.5961    2.0586    9.9960 C   0  0  0  0  0  0  0  0  0  0  0  0
   -6.8747    1.8075    9.4652 C   0  0  0  0  0  0  0  0  0  0  0  0
   -8.0339    2.0383   10.2494 C   0  0  0  0  0  0  0  0  0  0  0  0
   -7.8764    2.5511   11.5732 C   0  0  0  0  0  0  0  0  0  0  0  0
   -6.5821    2.9721   11.9830 C   0  0  0  0  0  0  0  0  0  0  0  0
    0.3152    3.8018    6.9116 C   0  0  0  0  0  0  0  0  0  0  0  0
   -1.0086    3.6420    6.3940 C   0  0  0  0  0  0  0  0  0  0  0  0
   -1.2345    3.4654    5.0071 C   0  0  0  0  0  0  0  0  0  0  0  0
   -0.1441    3.4708    4.1251 C   0  0  0  0  0  0  0  0  0  0  0  0
    1.1716    3.6452    4.5866 C   0  0  0  0  0  0  0  0  0  0  0  0
    1.3821    3.8302    5.9685 C   0  0  0  0  0  0  0  0  0  0  0  0
    2.2243    3.6609    3.6972 O   0  0  0  0  0  0  0  0  0  0  0  0
    2.7508    2.4027    3.4913 C   0  0  0  0  0  0  0  0  0  0  0  0
    2.3243    1.5623    2.4343 C   0  0  0  0  0  0  0  0  0  0  0  0
    2.7980    0.2156    2.3563 C   0  0  0  0  0  0  0  0  0  0  0  0
    3.7930   -0.2415    3.2745 C   0  0  0  0  0  0  0  0  0  0  0  0
    4.2953    0.6469    4.2744 C   0  0  0  0  0  0  0  0  0  0  0  0
    3.7489    1.9479    4.3688 C   0  0  0  0  0  0  0  0  0  0  0  0
    1.4152    2.0400    1.4595 C   0  0  0  0  0  0  0  0  0  0  0  0
    0.8481    1.1747    0.5123 C   0  0  0  0  0  0  0  0  0  0  0  0
    1.2529   -0.1674    0.4607 C   0  0  0  0  0  0  0  0  0  0  0  0
    2.2335   -0.6279    1.3586 C   0  0  0  0  0  0  0  0  0  0  0  0
    3.1243    4.5097   10.9072 O   0  0  0  0  0  0  0  0  0  0  0  0
    3.3466    5.8723   10.9823 C   0  0  0  0  0  0  0  0  0  0  0  0
    2.8451    6.5712   12.0933 C   0  0  0  0  0  0  0  0  0  0  0  0
    2.9771    7.9729   12.2323 C   0  0  0  0  0  0  0  0  0  0  0  0
    3.5991    8.7007   11.1690 C   0  0  0  0  0  0  0  0  0  0  0  0
    4.1532    7.9995   10.0469 C   0  0  0  0  0  0  0  0  0  0  0  0
    4.0733    6.5745    9.9890 C   0  0  0  0  0  0  0  0  0  0  0  0
    0.6910   -1.0303   -0.4427 O   0  0  0  0  0  0  0  0  0  0  0  0
   -6.9520    1.3577    8.1669 O   0  0  0  0  0  0  0  0  0  0  0  0
   -2.4867    3.2239    4.4905 O   0  0  0  0  0  0  0  0  0  0  0  0
    2.4856    8.5765   13.4331 C   0  0  0  0  0  0  0  0  0  0  0  0
    1.7528    7.9773   14.2536 O   0  0  0  0  0  0  0  0  0  0  0  0
    5.3252    0.3264    5.2062 C   0  0  0  0  0  0  0  0  0  0  0  0
    6.1195   -0.6310    5.0660 O   0  0  0  0  0  0  0  0  0  0  0  0
   -9.2878    1.7117    9.6658 C   0  0  0  0  0  0  0  0  0  0  0  0
  -10.2912    2.4517    9.7632 O   0  0  0  0  0  0  0  0  0  0  0  0
   -8.9464    2.6329   12.4765 C   0  0  0  0  0  0  0  0  0  0  0  0
   -8.8684    2.3416   13.7837 C   0  0  0  0  0  0  0  0  0  0  0  0
    4.6750    5.8453    8.9676 C   0  0  0  0  0  0  0  0  0  0  0  0
    5.6264    4.9265    9.1755 C   0  0  0  0  0  0  0  0  0  0  0  0
    4.2412   -1.5591    3.2167 C   0  0  0  0  0  0  0  0  0  0  0  0
    5.1620   -1.9907    2.3458 C   0  0  0  0  0  0  0  0  0  0  0  0
   -1.4774    3.0837   12.5919 O   0  0  0  0  0  0  0  0  0  0  0  0
   -6.9183    2.4351    7.2056 C   0  0  0  0  0  0  0  0  0  0  0  0
   -3.1246    4.3860    3.9333 C   0  0  0  0  0  0  0  0  0  0  0  0
    1.3787   -1.0364   -1.7051 C   0  0  0  0  0  0  0  0  0  0  0  0
   -2.1115    3.6503    7.2687 C   0  0  0  0  0  0  0  0  0  0  0  0
    4.7733    8.7481    9.0060 C   0  0  0  0  0  0  0  0  0  0  0  0
    4.8581   10.1564    9.0298 C   0  0  0  0  0  0  0  0  0  0  0  0
    4.3033   10.8299   10.1326 C   0  0  0  0  0  0  0  0  0  0  0  0
    3.6843   10.1190   11.1707 C   0  0  0  0  0  0  0  0  0  0  0  0
    5.4688   10.8893    7.9809 C   0  0  0  0  0  0  0  0  0  0  0  0
    5.9530   10.3402    6.9646 O   0  0  0  0  0  0  0  0  0  0  0  0
    0.8994    4.0077   12.1861 H   0  0  0  0  0  0  0  0  0  0  0  0
    2.6057    4.1783    8.4029 H   0  0  0  0  0  0  0  0  0  0  0  0
   -3.9344    3.8508    9.0894 H   0  0  0  0  0  0  0  0  0  0  0  0
   -4.7936    1.7341    9.4562 H   0  0  0  0  0  0  0  0  0  0  0  0
   -6.4895    3.4387   12.8892 H   0  0  0  0  0  0  0  0  0  0  0  0
   -0.3220    3.3434    3.1311 H   0  0  0  0  0  0  0  0  0  0  0  0
    2.3438    3.9792    6.2656 H   0  0  0  0  0  0  0  0  0  0  0  0
    4.0795    2.5957    5.0909 H   0  0  0  0  0  0  0  0  0  0  0  0
    1.1496    3.0278    1.4193 H   0  0  0  0  0  0  0  0  0  0  0  0
    0.1398    1.5206   -0.1405 H   0  0  0  0  0  0  0  0  0  0  0  0
    2.5218   -1.6044    1.2691 H   0  0  0  0  0  0  0  0  0  0  0  0
    2.3745    6.0224   12.8175 H   0  0  0  0  0  0  0  0  0  0  0  0
    2.7315    9.5305   13.6895 H   0  0  0  0  0  0  0  0  0  0  0  0
    5.4728    0.9132    6.0315 H   0  0  0  0  0  0  0  0  0  0  0  0
   -9.3828    0.8733    9.0911 H   0  0  0  0  0  0  0  0  0  0  0  0
   -9.8401    2.8987   12.1410 H   0  0  0  0  0  0  0  0  0  0  0  0
   -9.6737    2.4095   14.3579 H   0  0  0  0  0  0  0  0  0  0  0  0
   -8.0201    2.0423   14.2026 H   0  0  0  0  0  0  0  0  0  0  0  0
    4.3928    6.0286    8.0333 H   0  0  0  0  0  0  0  0  0  0  0  0
    6.0181    4.4349    8.4081 H   0  0  0  0  0  0  0  0  0  0  0  0
    5.9573    4.7205   10.0899 H   0  0  0  0  0  0  0  0  0  0  0  0
    3.8527   -2.2064    3.8615 H   0  0  0  0  0  0  0  0  0  0  0  0
    5.4432   -2.9434    2.3567 H   0  0  0  0  0  0  0  0  0  0  0  0
    5.5768   -1.3772    1.6847 H   0  0  0  0  0  0  0  0  0  0  0  0
   -6.9748    2.0040    6.2063 H   0  0  0  0  0  0  0  0  0  0  0  0
   -7.7663    3.1145    7.3287 H   0  0  0  0  0  0  0  0  0  0  0  0
   -5.9883    3.0062    7.2721 H   0  0  0  0  0  0  0  0  0  0  0  0
   -4.1077    4.0855    3.5704 H   0  0  0  0  0  0  0  0  0  0  0  0
   -3.2614    5.1713    4.6817 H   0  0  0  0  0  0  0  0  0  0  0  0
   -2.5566    4.7758    3.0862 H   0  0  0  0  0  0  0  0  0  0  0  0
    0.9218   -1.7977   -2.3377 H   0  0  0  0  0  0  0  0  0  0  0  0
    1.2816   -0.0708   -2.2081 H   0  0  0  0  0  0  0  0  0  0  0  0
    2.4373   -1.2835   -1.5851 H   0  0  0  0  0  0  0  0  0  0  0  0
   -3.0634    3.5771    6.8954 H   0  0  0  0  0  0  0  0  0  0  0  0
    5.1732    8.2653    8.1978 H   0  0  0  0  0  0  0  0  0  0  0  0
    4.3354   11.8512   10.1901 H   0  0  0  0  0  0  0  0  0  0  0  0
    3.2850   10.6783   11.9209 H   0  0  0  0  0  0  0  0  0  0  0  0
    5.5242   11.9083    8.0286 H   0  0  0  0  0  0  0  0  0  0  0  0
  9 11  1  0  0  0  0
 11 12  2  0  0  0  0
 11 13  1  0  0  0  0
 23 24  2  0  0  0  0
 23 25  1  0  0  0  0
 25 26  1  0  0  0  0
  2 36  1  0  0  0  0
 36 37  1  0  0  0  0
 34 43  1  0  0  0  0
 15 44  1  0  0  0  0
 21 45  1  0  0  0  0
 39 46  1  0  0  0  0
 46 47  2  0  0  0  0
 30 48  1  0  0  0  0
 48 49  2  0  0  0  0
 16 50  1  0  0  0  0
 50 51  2  0  0  0  0
 17 52  1  0  0  0  0
 52 53  2  0  0  0  0
 42 54  1  0  0  0  0
 54 55  2  0  0  0  0
 29 56  1  0  0  0  0
 56 57  2  0  0  0  0
 10 58  2  0  0  0  0
 44 59  1  0  0  0  0
 45 60  1  0  0  0  0
 43 61  1  0  0  0  0
 20 62  1  0  0  0  0
  7 62  2  0  0  0  0
 19 24  1  0  0  0  0
 22 23  1  0  0  0  0
 21 22  2  0  0  0  0
 20 21  1  0  0  0  0
 19 20  2  0  0  0  0
  4 19  1  0  0  0  0
  6 10  1  0  0  0  0
  9 10  1  0  0  0  0
  8  9  2  0  0  0  0
  7  8  1  0  0  0  0
  5  7  1  0  0  0  0
  1  6  2  0  0  0  0
  5  6  1  0  0  0  0
  4  5  2  0  0  0  0
  3  4  1  0  0  0  0
  2  3  2  0  0  0  0
  1  2  1  0  0  0  0
 13 18  2  0  0  0  0
 17 18  1  0  0  0  0
 16 17  2  0  0  0  0
 15 16  1  0  0  0  0
 14 15  2  0  0  0  0
 13 14  1  0  0  0  0
 40 66  2  0  0  0  0
 65 66  1  0  0  0  0
 64 65  2  0  0  0  0
 63 64  1  0  0  0  0
 41 63  2  0  0  0  0
 37 42  2  0  0  0  0
 41 42  1  0  0  0  0
 40 41  1  0  0  0  0
 39 40  1  0  0  0  0
 38 39  2  0  0  0  0
 37 38  1  0  0  0  0
 28 35  2  0  0  0  0
 34 35  1  0  0  0  0
 33 34  2  0  0  0  0
 32 33  1  0  0  0  0
 27 32  2  0  0  0  0
 26 31  2  0  0  0  0
 30 31  1  0  0  0  0
 29 30  2  0  0  0  0
 28 29  1  0  0  0  0
 27 28  1  0  0  0  0
 26 27  1  0  0  0  0
 64 67  1  0  0  0  0
 67 68  2  0  0  0  0
  1 69  1  0  0  0  0
  3 70  1  0  0  0  0
  8 71  1  0  0  0  0
 14 72  1  0  0  0  0
 18 73  1  0  0  0  0
 22 74  1  0  0  0  0
 24 75  1  0  0  0  0
 31 76  1  0  0  0  0
 32 77  1  0  0  0  0
 33 78  1  0  0  0  0
 35 79  1  0  0  0  0
 38 80  1  0  0  0  0
 46 81  1  0  0  0  0
 48 82  1  0  0  0  0
 50 83  1  0  0  0  0
 52 84  1  0  0  0  0
 53 85  1  0  0  0  0
 53 86  1  0  0  0  0
 54 87  1  0  0  0  0
 55 88  1  0  0  0  0
 55 89  1  0  0  0  0
 56 90  1  0  0  0  0
 57 91  1  0  0  0  0
 57 92  1  0  0  0  0
 59 93  1  0  0  0  0
 59 94  1  0  0  0  0
 59 95  1  0  0  0  0
 60 96  1  0  0  0  0
 60 97  1  0  0  0  0
 60 98  1  0  0  0  0
 61 99  1  0  0  0  0
 61100  1  0  0  0  0
 61101  1  0  0  0  0
 62102  1  0  0  0  0
 63103  1  0  0  0  0
 65104  1  0  0  0  0
 66105  1  0  0  0  0
 67106  1  0  0  0  0
M  END
