
  Mrv2101 10312211283D          

145160  0  0  0  0            999 V2000
   -5.8025   -5.4898   -2.5352 C   0  0  0  0  0  0  0  0  0  0  0  0
   -5.1663   -6.0475   -1.4101 C   0  0  0  0  0  0  0  0  0  0  0  0
   -4.4306   -5.1979   -0.5624 C   0  0  0  0  0  0  0  0  0  0  0  0
   -4.2538   -3.8300   -0.8758 C   0  0  0  0  0  0  0  0  0  0  0  0
   -4.8701   -3.2863   -2.0339 C   0  0  0  0  0  0  0  0  0  0  0  0
   -5.6751   -4.1191   -2.8594 C   0  0  0  0  0  0  0  0  0  0  0  0
   -6.3249   -3.5708   -3.9900 C   0  0  0  0  0  0  0  0  0  0  0  0
   -7.0555   -4.3016   -4.7040 O   0  0  0  0  0  0  0  0  0  0  0  0
   -6.1586   -2.2084   -4.3305 C   0  0  0  0  0  0  0  0  0  0  0  0
   -5.3186   -1.3838   -3.5261 C   0  0  0  0  0  0  0  0  0  0  0  0
   -5.1168   -0.0214   -3.8921 C   0  0  0  0  0  0  0  0  0  0  0  0
   -5.7736    0.5030   -5.0308 C   0  0  0  0  0  0  0  0  0  0  0  0
   -6.6146   -0.3059   -5.8083 C   0  0  0  0  0  0  0  0  0  0  0  0
   -6.8026   -1.6510   -5.4639 C   0  0  0  0  0  0  0  0  0  0  0  0
   -4.6756   -1.9173   -2.3690 C   0  0  0  0  0  0  0  0  0  0  0  0
   -3.8357   -1.0940   -1.5565 C   0  0  0  0  0  0  0  0  0  0  0  0
   -3.6405    0.2505   -1.9653 C   0  0  0  0  0  0  0  0  0  0  0  0
   -4.2531    0.7791   -3.1141 C   0  0  0  0  0  0  0  0  0  0  0  0
   -3.2195   -1.6421   -0.3880 C   0  0  0  0  0  0  0  0  0  0  0  0
   -3.4538   -3.0004   -0.0661 C   0  0  0  0  0  0  0  0  0  0  0  0
   -5.2837   -7.3914   -1.1240 O   0  0  0  0  0  0  0  0  0  0  0  0
   -4.2877   -8.1392   -1.7163 C   0  0  0  0  0  0  0  0  0  0  0  0
   -4.4545   -8.7991   -2.9693 C   0  0  0  0  0  0  0  0  0  0  0  0
   -3.3306   -9.4002   -3.6290 C   0  0  0  0  0  0  0  0  0  0  0  0
   -2.1002   -9.4437   -2.9139 C   0  0  0  0  0  0  0  0  0  0  0  0
   -1.9752   -8.9063   -1.6242 C   0  0  0  0  0  0  0  0  0  0  0  0
   -3.0598   -8.2494   -1.0352 C   0  0  0  0  0  0  0  0  0  0  0  0
   -3.4792   -9.9481   -4.9486 C   0  0  0  0  0  0  0  0  0  0  0  0
   -4.7614   -9.9175   -5.5821 C   0  0  0  0  0  0  0  0  0  0  0  0
   -5.8519   -9.3615   -4.8900 C   0  0  0  0  0  0  0  0  0  0  0  0
   -5.7294   -8.8845   -3.5792 C   0  0  0  0  0  0  0  0  0  0  0  0
   -5.0022  -10.3717   -6.8744 O   0  0  0  0  0  0  0  0  0  0  0  0
   -5.6295  -11.6027   -6.9348 C   0  0  0  0  0  0  0  0  0  0  0  0
   -7.0247  -11.7585   -6.7935 C   0  0  0  0  0  0  0  0  0  0  0  0
   -7.6164  -13.0424   -6.7181 C   0  0  0  0  0  0  0  0  0  0  0  0
   -6.7940  -14.1954   -6.7786 C   0  0  0  0  0  0  0  0  0  0  0  0
   -5.4003  -14.0478   -7.0166 C   0  0  0  0  0  0  0  0  0  0  0  0
   -4.8624  -12.7539   -7.1724 C   0  0  0  0  0  0  0  0  0  0  0  0
   -7.3617  -15.4858   -6.6015 C   0  0  0  0  0  0  0  0  0  0  0  0
   -8.7732  -15.6295   -6.4105 C   0  0  0  0  0  0  0  0  0  0  0  0
   -9.6168  -14.4712   -6.4106 C   0  0  0  0  0  0  0  0  0  0  0  0
   -9.0081  -13.1990   -6.5633 C   0  0  0  0  0  0  0  0  0  0  0  0
   -6.4954  -16.6217   -6.5969 C   0  0  0  0  0  0  0  0  0  0  0  0
   -7.0309  -17.9212   -6.3756 C   0  0  0  0  0  0  0  0  0  0  0  0
   -8.4236  -18.0684   -6.2043 C   0  0  0  0  0  0  0  0  0  0  0  0
   -9.2666  -16.9459   -6.2209 C   0  0  0  0  0  0  0  0  0  0  0  0
   -5.0921  -16.4677   -6.7995 C   0  0  0  0  0  0  0  0  0  0  0  0
   -4.2486  -17.6035   -6.7269 C   0  0  0  0  0  0  0  0  0  0  0  0
   -4.7757  -18.8860   -6.4993 C   0  0  0  0  0  0  0  0  0  0  0  0
   -6.1613  -19.0360   -6.3186 C   0  0  0  0  0  0  0  0  0  0  0  0
   -4.5617  -15.1844   -7.0568 C   0  0  0  0  0  0  0  0  0  0  0  0
   -3.3338  -15.0554   -7.2913 O   0  0  0  0  0  0  0  0  0  0  0  0
   -2.3202  -10.5618   -5.6761 C   0  0  2  0  0  0  0  0  0  0  0  0
   -1.3883   -9.5631   -6.4164 C   0  0  2  0  0  0  0  0  0  0  0  0
   -0.3360  -10.3248   -7.2768 C   0  0  1  0  0  0  0  0  0  0  0  0
    0.4820   -9.4205   -8.1254 C   0  0  0  0  0  0  0  0  0  0  0  0
    0.1276   -9.1655   -9.4707 C   0  0  0  0  0  0  0  0  0  0  0  0
    0.8908   -8.2856  -10.2603 C   0  0  0  0  0  0  0  0  0  0  0  0
    2.0346   -7.6432   -9.7280 C   0  0  0  0  0  0  0  0  0  0  0  0
    2.3977   -7.9173   -8.3882 C   0  0  0  0  0  0  0  0  0  0  0  0
    1.6328   -8.7949   -7.5986 C   0  0  0  0  0  0  0  0  0  0  0  0
   -2.3021   -0.8650    0.5098 C   0  0  1  0  0  0  0  0  0  0  0  0
   -0.8678   -0.7728   -0.0810 C   0  0  2  0  0  0  0  0  0  0  0  0
    0.0642    0.1443    0.7577 C   0  0  2  0  0  0  0  0  0  0  0  0
    1.4488    0.1386    0.2156 C   0  0  0  0  0  0  0  0  0  0  0  0
    1.8446    1.0746   -0.7612 C   0  0  0  0  0  0  0  0  0  0  0  0
    3.1391    1.0345   -1.3036 C   0  0  0  0  0  0  0  0  0  0  0  0
    4.0770    0.0587   -0.8849 C   0  0  0  0  0  0  0  0  0  0  0  0
    3.6931   -0.8884    0.1057 C   0  0  0  0  0  0  0  0  0  0  0  0
    2.3831   -0.8299    0.6425 C   0  0  0  0  0  0  0  0  0  0  0  0
    4.6283   -1.8806    0.5351 C   0  0  0  0  0  0  0  0  0  0  0  0
    4.2788   -2.7444    1.3770 O   0  0  0  0  0  0  0  0  0  0  0  0
    5.9588   -1.9037    0.0152 C   0  0  0  0  0  0  0  0  0  0  0  0
    5.3934    0.0068   -1.4380 C   0  0  0  0  0  0  0  0  0  0  0  0
    6.3452   -0.9526   -0.9729 C   0  0  0  0  0  0  0  0  0  0  0  0
    5.7174    0.8110   -2.3462 O   0  0  0  0  0  0  0  0  0  0  0  0
    7.6721   -0.9791   -1.4742 C   0  0  0  0  0  0  0  0  0  0  0  0
    8.6022   -1.9279   -1.0149 C   0  0  0  0  0  0  0  0  0  0  0  0
    8.2179   -2.8708   -0.0486 C   0  0  0  0  0  0  0  0  0  0  0  0
    6.9089   -2.8566    0.4631 C   0  0  0  0  0  0  0  0  0  0  0  0
    9.1123   -3.7858    0.3970 O   0  0  0  0  0  0  0  0  0  0  0  0
    9.8697   -1.9304   -1.4958 O   0  0  0  0  0  0  0  0  0  0  0  0
   -8.9995  -19.2838   -6.0160 O   0  0  0  0  0  0  0  0  0  0  0  0
    2.8088   -6.7414  -10.4976 C   0  0  0  0  0  0  0  0  0  0  0  0
    2.5216   -6.4462  -11.6803 O   0  0  0  0  0  0  0  0  0  0  0  0
  -11.0389  -14.5187   -6.2495 C   0  0  0  0  0  0  0  0  0  0  0  0
  -11.7653  -13.4971   -6.2345 O   0  0  0  0  0  0  0  0  0  0  0  0
   -3.9820    2.1372   -3.4582 O   0  0  0  0  0  0  0  0  0  0  0  0
   -2.8872    2.6218   -4.3481 C   0  0  0  0  0  0  0  0  0  0  0  0
   -6.8920   -8.5302   -2.9412 O   0  0  0  0  0  0  0  0  0  0  0  0
   -7.4815   -9.6200   -2.2052 C   0  0  0  0  0  0  0  0  0  0  0  0
   -3.9487  -19.9771   -6.4187 O   0  0  0  0  0  0  0  0  0  0  0  0
   -3.4934  -20.4417   -7.7032 C   0  0  0  0  0  0  0  0  0  0  0  0
   -6.3660   -6.0952   -3.1289 H   0  0  0  0  0  0  0  0  0  0  0  0
   -4.0099   -5.5950    0.2803 H   0  0  0  0  0  0  0  0  0  0  0  0
   -5.6486    1.4777   -5.3145 H   0  0  0  0  0  0  0  0  0  0  0  0
   -7.0856    0.0826   -6.6302 H   0  0  0  0  0  0  0  0  0  0  0  0
   -7.4159   -2.2149   -6.0592 H   0  0  0  0  0  0  0  0  0  0  0  0
   -3.0365    0.8792   -1.4356 H   0  0  0  0  0  0  0  0  0  0  0  0
   -3.0148   -3.4039    0.7672 H   0  0  0  0  0  0  0  0  0  0  0  0
   -1.2606   -9.8750   -3.3032 H   0  0  0  0  0  0  0  0  0  0  0  0
   -1.0907   -8.9797   -1.1144 H   0  0  0  0  0  0  0  0  0  0  0  0
   -2.9487   -7.8425   -0.1051 H   0  0  0  0  0  0  0  0  0  0  0  0
   -6.7665   -9.3082   -5.3405 H   0  0  0  0  0  0  0  0  0  0  0  0
   -7.6108  -10.9248   -6.7408 H   0  0  0  0  0  0  0  0  0  0  0  0
   -3.8920  -12.6481   -7.4498 H   0  0  0  0  0  0  0  0  0  0  0  0
   -9.5852  -12.3526   -6.5567 H   0  0  0  0  0  0  0  0  0  0  0  0
  -10.2584  -17.1242   -6.0831 H   0  0  0  0  0  0  0  0  0  0  0  0
   -3.2335  -17.5132   -6.8326 H   0  0  0  0  0  0  0  0  0  0  0  0
   -6.5279  -19.9720   -6.1339 H   0  0  0  0  0  0  0  0  0  0  0  0
   -2.6823  -11.2412   -6.4263 H   0  0  0  0  0  0  0  0  0  0  0  0
   -1.7374  -11.1971   -5.0072 H   0  0  0  0  0  0  0  0  0  0  0  0
   -0.8745   -8.9186   -5.6954 H   0  0  0  0  0  0  0  0  0  0  0  0
   -1.9960   -8.9289   -7.0695 H   0  0  0  0  0  0  0  0  0  0  0  0
    0.3177  -10.9072   -6.6199 H   0  0  0  0  0  0  0  0  0  0  0  0
   -0.8485  -11.0459   -7.9194 H   0  0  0  0  0  0  0  0  0  0  0  0
   -0.6939   -9.6149   -9.8852 H   0  0  0  0  0  0  0  0  0  0  0  0
    0.6012   -8.1192  -11.2289 H   0  0  0  0  0  0  0  0  0  0  0  0
    3.2244   -7.4796   -7.9717 H   0  0  0  0  0  0  0  0  0  0  0  0
    1.9207   -8.9744   -6.6331 H   0  0  0  0  0  0  0  0  0  0  0  0
   -2.7084    0.1332    0.6882 H   0  0  0  0  0  0  0  0  0  0  0  0
   -2.2298   -1.3308    1.4993 H   0  0  0  0  0  0  0  0  0  0  0  0
   -0.9120   -0.3830   -1.1030 H   0  0  0  0  0  0  0  0  0  0  0  0
   -0.4436   -1.7832   -0.1249 H   0  0  0  0  0  0  0  0  0  0  0  0
    0.0731   -0.1897    1.7999 H   0  0  0  0  0  0  0  0  0  0  0  0
   -0.3305    1.1652    0.7543 H   0  0  0  0  0  0  0  0  0  0  0  0
    1.1886    1.7883   -1.0906 H   0  0  0  0  0  0  0  0  0  0  0  0
    3.3856    1.7272   -2.0144 H   0  0  0  0  0  0  0  0  0  0  0  0
    2.0951   -1.5066    1.3533 H   0  0  0  0  0  0  0  0  0  0  0  0
    7.9783   -0.3057   -2.1809 H   0  0  0  0  0  0  0  0  0  0  0  0
    6.6591   -3.5532    1.1697 H   0  0  0  0  0  0  0  0  0  0  0  0
    9.2959   -3.5201    1.3225 H   0  0  0  0  0  0  0  0  0  0  0  0
   10.2923   -1.1425   -1.0935 H   0  0  0  0  0  0  0  0  0  0  0  0
   -8.8699  -19.7513   -6.8676 H   0  0  0  0  0  0  0  0  0  0  0  0
    3.6352   -6.2953  -10.0921 H   0  0  0  0  0  0  0  0  0  0  0  0
  -11.5322  -15.4003   -6.1355 H   0  0  0  0  0  0  0  0  0  0  0  0
   -2.9548    3.7076   -4.4292 H   0  0  0  0  0  0  0  0  0  0  0  0
   -1.9144    2.3570   -3.9303 H   0  0  0  0  0  0  0  0  0  0  0  0
   -2.9842    2.1860   -5.3444 H   0  0  0  0  0  0  0  0  0  0  0  0
   -8.3969   -9.2603   -1.7365 H   0  0  0  0  0  0  0  0  0  0  0  0
   -7.7452  -10.4517   -2.8630 H   0  0  0  0  0  0  0  0  0  0  0  0
   -6.8152   -9.9772   -1.4164 H   0  0  0  0  0  0  0  0  0  0  0  0
   -2.8232  -21.2867   -7.5457 H   0  0  0  0  0  0  0  0  0  0  0  0
   -4.3308  -20.7792   -8.3180 H   0  0  0  0  0  0  0  0  0  0  0  0
   -2.9351  -19.6698   -8.2392 H   0  0  0  0  0  0  0  0  0  0  0  0
  1  2  1  0  0  0  0
  2  3  2  0  0  0  0
  3  4  1  0  0  0  0
  4  5  2  0  0  0  0
  5  6  1  0  0  0  0
  1  6  2  0  0  0  0
  6  7  1  0  0  0  0
  7  8  2  0  0  0  0
  7  9  1  0  0  0  0
 10 11  1  0  0  0  0
 11 12  1  0  0  0  0
 12 13  2  0  0  0  0
 13 14  1  0  0  0  0
  9 10  1  0  0  0  0
  9 14  2  0  0  0  0
 15 16  1  0  0  0  0
 16 17  2  0  0  0  0
 17 18  1  0  0  0  0
 10 15  2  0  0  0  0
 11 18  2  0  0  0  0
 19 20  2  0  0  0  0
 15  5  1  0  0  0  0
 16 19  1  0  0  0  0
 20  4  1  0  0  0  0
  2 21  1  0  0  0  0
 21 22  1  0  0  0  0
 23 24  2  0  0  0  0
 24 25  1  0  0  0  0
 25 26  2  0  0  0  0
 26 27  1  0  0  0  0
 22 23  1  0  0  0  0
 22 27  2  0  0  0  0
 28 29  2  0  0  0  0
 29 30  1  0  0  0  0
 30 31  2  0  0  0  0
 23 31  1  0  0  0  0
 24 28  1  0  0  0  0
 29 32  1  0  0  0  0
 32 33  1  0  0  0  0
 34 35  1  0  0  0  0
 35 36  2  0  0  0  0
 36 37  1  0  0  0  0
 37 38  2  0  0  0  0
 33 34  2  0  0  0  0
 33 38  1  0  0  0  0
 39 40  2  0  0  0  0
 40 41  1  0  0  0  0
 41 42  2  0  0  0  0
 35 42  1  0  0  0  0
 36 39  1  0  0  0  0
 43 44  1  0  0  0  0
 44 45  1  0  0  0  0
 45 46  2  0  0  0  0
 39 43  1  0  0  0  0
 40 46  1  0  0  0  0
 47 48  1  0  0  0  0
 48 49  2  0  0  0  0
 49 50  1  0  0  0  0
 43 47  2  0  0  0  0
 44 50  2  0  0  0  0
 47 51  1  0  0  0  0
 51 37  1  0  0  0  0
 51 52  2  0  0  0  0
 28 53  1  0  0  0  0
 53 54  1  0  0  0  0
 54 55  1  0  0  0  0
 55 56  1  0  0  0  0
 57 58  2  0  0  0  0
 58 59  1  0  0  0  0
 59 60  2  0  0  0  0
 60 61  1  0  0  0  0
 56 57  1  0  0  0  0
 56 61  2  0  0  0  0
 19 62  1  0  0  0  0
 62 63  1  0  0  0  0
 63 64  1  0  0  0  0
 64 65  1  0  0  0  0
 66 67  2  0  0  0  0
 67 68  1  0  0  0  0
 68 69  2  0  0  0  0
 69 70  1  0  0  0  0
 65 66  1  0  0  0  0
 65 70  2  0  0  0  0
 69 71  1  0  0  0  0
 71 72  2  0  0  0  0
 71 73  1  0  0  0  0
 68 74  1  0  0  0  0
 74 75  1  0  0  0  0
 74 76  2  0  0  0  0
 77 78  2  0  0  0  0
 78 79  1  0  0  0  0
 79 80  2  0  0  0  0
 75 77  1  0  0  0  0
 80 73  1  0  0  0  0
 75 73  2  0  0  0  0
 79 81  1  0  0  0  0
 78 82  1  0  0  0  0
 45 83  1  0  0  0  0
 59 84  1  0  0  0  0
 84 85  2  0  0  0  0
 41 86  1  0  0  0  0
 86 87  2  0  0  0  0
 18 88  1  0  0  0  0
 88 89  1  0  0  0  0
 31 90  1  0  0  0  0
 90 91  1  0  0  0  0
 49 92  1  0  0  0  0
 92 93  1  0  0  0  0
  1 94  1  0  0  0  0
  3 95  1  0  0  0  0
 12 96  1  0  0  0  0
 13 97  1  0  0  0  0
 14 98  1  0  0  0  0
 17 99  1  0  0  0  0
 20100  1  0  0  0  0
 25101  1  0  0  0  0
 26102  1  0  0  0  0
 27103  1  0  0  0  0
 30104  1  0  0  0  0
 34105  1  0  0  0  0
 38106  1  0  0  0  0
 42107  1  0  0  0  0
 46108  1  0  0  0  0
 48109  1  0  0  0  0
 50110  1  0  0  0  0
 53111  1  0  0  0  0
 53112  1  0  0  0  0
 54113  1  0  0  0  0
 54114  1  0  0  0  0
 55115  1  0  0  0  0
 55116  1  0  0  0  0
 57117  1  0  0  0  0
 58118  1  0  0  0  0
 60119  1  0  0  0  0
 61120  1  0  0  0  0
 62121  1  0  0  0  0
 62122  1  0  0  0  0
 63123  1  0  0  0  0
 63124  1  0  0  0  0
 64125  1  0  0  0  0
 64126  1  0  0  0  0
 66127  1  0  0  0  0
 67128  1  0  0  0  0
 70129  1  0  0  0  0
 77130  1  0  0  0  0
 80131  1  0  0  0  0
 81132  1  0  0  0  0
 82133  1  0  0  0  0
 83134  1  0  0  0  0
 84135  1  0  0  0  0
 86136  1  0  0  0  0
 89137  1  0  0  0  0
 89138  1  0  0  0  0
 89139  1  0  0  0  0
 91140  1  0  0  0  0
 91141  1  0  0  0  0
 91142  1  0  0  0  0
 93143  1  0  0  0  0
 93144  1  0  0  0  0
 93145  1  0  0  0  0
M  END
