
  Mrv2101 10312211303D          

156182  0  0  0  0            999 V2000
   -6.0330   -5.3930    6.7535 C   0  0  0  0  0  0  0  0  0  0  0  0
   -5.2331   -6.3408    6.0856 C   0  0  0  0  0  0  0  0  0  0  0  0
   -3.9939   -5.9770    5.5427 C   0  0  0  0  0  0  0  0  0  0  0  0
   -3.5081   -4.6539    5.6714 C   0  0  0  0  0  0  0  0  0  0  0  0
   -4.3069   -3.6783    6.3285 C   0  0  0  0  0  0  0  0  0  0  0  0
   -5.5529   -4.0633    6.8955 C   0  0  0  0  0  0  0  0  0  0  0  0
   -3.8522   -2.3303    6.4375 C   0  0  0  0  0  0  0  0  0  0  0  0
   -4.6711   -1.3414    7.0428 C   0  0  0  0  0  0  0  0  0  0  0  0
   -5.8961   -1.7397    7.6402 C   0  0  0  0  0  0  0  0  0  0  0  0
   -6.2858   -3.0977    7.6081 C   0  0  0  0  0  0  0  0  0  0  0  0
   -2.5598   -1.9760    5.9803 C   0  0  0  0  0  0  0  0  0  0  0  0
   -2.0880   -0.6368    6.1535 C   0  0  0  0  0  0  0  0  0  0  0  0
   -3.0021    0.4148    6.5197 C   0  0  0  0  0  0  0  0  0  0  0  0
   -4.2699    0.0292    7.0550 C   0  0  0  0  0  0  0  0  0  0  0  0
   -1.7343   -2.9818    5.3903 C   0  0  0  0  0  0  0  0  0  0  0  0
   -0.4046   -2.6574    5.0399 C   0  0  0  0  0  0  0  0  0  0  0  0
    0.1298   -1.4136    5.3838 C   0  0  0  0  0  0  0  0  0  0  0  0
   -0.6866   -0.4551    5.9963 C   0  0  0  0  0  0  0  0  0  0  0  0
   -2.7436    1.8244    6.3977 C   0  0  0  0  0  0  0  0  0  0  0  0
   -3.6015    2.7846    7.0194 C   0  0  0  0  0  0  0  0  0  0  0  0
   -4.8235    2.3890    7.6095 C   0  0  0  0  0  0  0  0  0  0  0  0
   -5.1520    1.0060    7.6117 C   0  0  0  0  0  0  0  0  0  0  0  0
   -6.3740    0.6017    8.2008 C   0  0  0  0  0  0  0  0  0  0  0  0
   -7.2421    1.5752    8.7308 C   0  0  0  0  0  0  0  0  0  0  0  0
   -6.9666    2.9629    8.7115 C   0  0  0  0  0  0  0  0  0  0  0  0
   -5.7117    3.3684    8.1655 C   0  0  0  0  0  0  0  0  0  0  0  0
   -1.6758    2.3576    5.6310 C   0  0  0  0  0  0  0  0  0  0  0  0
   -1.2250    3.6823    5.7544 C   0  0  0  0  0  0  0  0  0  0  0  0
   -2.0317    4.5749    6.4730 C   0  0  0  0  0  0  0  0  0  0  0  0
   -3.2543    4.1610    7.0455 C   0  0  0  0  0  0  0  0  0  0  0  0
   -5.3508    4.7548    8.1725 C   0  0  0  0  0  0  0  0  0  0  0  0
   -4.0986    5.1394    7.6344 C   0  0  0  0  0  0  0  0  0  0  0  0
   -3.6930    6.4994    7.6735 C   0  0  0  0  0  0  0  0  0  0  0  0
   -4.5332    7.5120    8.2037 C   0  0  0  0  0  0  0  0  0  0  0  0
   -5.8199    7.1549    8.7162 C   0  0  0  0  0  0  0  0  0  0  0  0
   -6.2153    5.7596    8.7045 C   0  0  0  0  0  0  0  0  0  0  0  0
   -7.8912    3.9336    9.2125 C   0  0  0  0  0  0  0  0  0  0  0  0
   -7.4587    5.2797    9.1922 C   0  0  0  0  0  0  0  0  0  0  0  0
   -2.4189    6.8361    7.1586 C   0  0  0  0  0  0  0  0  0  0  0  0
   -1.9423    8.1585    7.1892 C   0  0  0  0  0  0  0  0  0  0  0  0
   -2.7783    9.1936    7.6848 C   0  0  0  0  0  0  0  0  0  0  0  0
   -4.0677    8.8697    8.1906 C   0  0  0  0  0  0  0  0  0  0  0  0
   -0.6480    8.4621    6.7170 C   0  0  0  0  0  0  0  0  0  0  0  0
   -0.1921    9.7815    6.6934 C   0  0  0  0  0  0  0  0  0  0  0  0
   -1.0173   10.8252    7.1503 C   0  0  0  0  0  0  0  0  0  0  0  0
   -2.3171   10.5426    7.6576 C   0  0  0  0  0  0  0  0  0  0  0  0
   -0.5463   12.1500    7.0955 C   0  0  0  0  0  0  0  0  0  0  0  0
   -1.3430   13.2350    7.5153 C   0  0  0  0  0  0  0  0  0  0  0  0
   -2.6277   12.9306    8.0263 C   0  0  0  0  0  0  0  0  0  0  0  0
   -3.1421   11.6038    8.1244 C   0  0  0  0  0  0  0  0  0  0  0  0
   -4.8842    9.9230    8.6779 C   0  0  0  0  0  0  0  0  0  0  0  0
   -4.4315   11.2857    8.6528 C   0  0  0  0  0  0  0  0  0  0  0  0
   -6.1711    9.5947    9.1854 C   0  0  0  0  0  0  0  0  0  0  0  0
   -6.9991   10.6395    9.6709 C   0  0  0  0  0  0  0  0  0  0  0  0
   -6.5700   11.9656    9.6690 C   0  0  0  0  0  0  0  0  0  0  0  0
   -5.3070   12.2806    9.1664 C   0  0  0  0  0  0  0  0  0  0  0  0
   -2.2309   -4.2920    5.1900 C   0  0  0  0  0  0  0  0  0  0  0  0
   -1.5163   -5.1495    4.6138 O   0  0  0  0  0  0  0  0  0  0  0  0
   -6.6114    8.2462    9.1985 C   0  0  0  0  0  0  0  0  0  0  0  0
   -7.7620    8.0894    9.6638 O   0  0  0  0  0  0  0  0  0  0  0  0
   -0.0027    4.0732    5.2486 O   0  0  0  0  0  0  0  0  0  0  0  0
   -0.0098    4.4150    3.9199 C   0  0  0  0  0  0  0  0  0  0  0  0
    0.3127    3.4844    2.8968 C   0  0  0  0  0  0  0  0  0  0  0  0
    0.1881    3.8522    1.5250 C   0  0  0  0  0  0  0  0  0  0  0  0
   -0.1266    5.1968    1.2053 C   0  0  0  0  0  0  0  0  0  0  0  0
   -0.3570    6.1411    2.2280 C   0  0  0  0  0  0  0  0  0  0  0  0
   -0.3054    5.7468    3.5722 C   0  0  0  0  0  0  0  0  0  0  0  0
    0.7622    2.1866    3.2037 C   0  0  0  0  0  0  0  0  0  0  0  0
    0.9187    1.2281    2.1974 C   0  0  0  0  0  0  0  0  0  0  0  0
    0.6702    1.5497    0.8428 C   0  0  0  0  0  0  0  0  0  0  0  0
    0.3623    2.8913    0.4791 C   0  0  0  0  0  0  0  0  0  0  0  0
    0.7219    0.5407   -0.1423 C   0  0  0  0  0  0  0  0  0  0  0  0
    0.5508    0.8708   -1.5058 C   0  0  0  0  0  0  0  0  0  0  0  0
    0.2415    2.2157   -1.8930 C   0  0  0  0  0  0  0  0  0  0  0  0
    0.2088    3.2560   -0.8997 C   0  0  0  0  0  0  0  0  0  0  0  0
    0.0332    4.6506   -1.1754 C   0  0  0  0  0  0  0  0  0  0  0  0
   -0.1837    5.5812   -0.1416 C   0  0  0  0  0  0  0  0  0  0  0  0
    0.6633   -0.1547   -2.4822 C   0  0  0  0  0  0  0  0  0  0  0  0
    0.3948    0.1011   -3.8321 C   0  0  0  0  0  0  0  0  0  0  0  0
    0.0044    1.3841   -4.2216 C   0  0  0  0  0  0  0  0  0  0  0  0
   -0.0690    2.4152   -3.2697 C   0  0  0  0  0  0  0  0  0  0  0  0
    0.9112   -0.7737    0.2312 O   0  0  0  0  0  0  0  0  0  0  0  0
   -0.3280   -1.4606    0.5070 C   0  0  0  0  0  0  0  0  0  0  0  0
    0.0512    5.2197   -2.4214 O   0  0  0  0  0  0  0  0  0  0  0  0
    1.3540    5.6837   -2.8247 C   0  0  0  0  0  0  0  0  0  0  0  0
   -7.2455   -5.7984    7.2719 O   0  0  0  0  0  0  0  0  0  0  0  0
   -8.2468   -5.7829    6.3306 C   0  0  0  0  0  0  0  0  0  0  0  0
   -8.5086   -6.9305    5.5504 C   0  0  0  0  0  0  0  0  0  0  0  0
   -9.4824   -6.9142    4.5247 C   0  0  0  0  0  0  0  0  0  0  0  0
  -10.2211   -5.7213    4.3223 C   0  0  0  0  0  0  0  0  0  0  0  0
  -10.0205   -4.5970    5.1385 C   0  0  0  0  0  0  0  0  0  0  0  0
   -9.0427   -4.6333    6.1435 C   0  0  0  0  0  0  0  0  0  0  0  0
   -9.7045   -8.0940    3.6888 C   0  0  0  0  0  0  0  0  0  0  0  0
  -10.7080   -7.9141    2.6397 C   0  0  0  0  0  0  0  0  0  0  0  0
   -9.0479   -9.2247    3.8621 O   0  0  0  0  0  0  0  0  0  0  0  0
  -11.0241   -8.9615    1.7463 C   0  0  0  0  0  0  0  0  0  0  0  0
  -11.9901   -8.7827    0.7366 C   0  0  0  0  0  0  0  0  0  0  0  0
  -12.6773   -7.5520    0.5755 C   0  0  0  0  0  0  0  0  0  0  0  0
  -12.3488   -6.5070    1.4749 C   0  0  0  0  0  0  0  0  0  0  0  0
  -11.3921   -6.6855    2.4856 C   0  0  0  0  0  0  0  0  0  0  0  0
  -11.1351   -5.6498    3.3234 O   0  0  0  0  0  0  0  0  0  0  0  0
   -6.7177   -0.7695    8.2518 C   0  0  0  0  0  0  0  0  0  0  0  0
   -7.7704   -1.1333    8.8335 O   0  0  0  0  0  0  0  0  0  0  0  0
   -9.1961    3.6175    9.7014 C   0  0  0  0  0  0  0  0  0  0  0  0
  -10.1416    4.4237   10.2187 C   0  0  0  0  0  0  0  0  0  0  0  0
  -13.6367   -7.4240   -0.4414 C   0  0  0  0  0  0  0  0  0  0  0  0
  -14.3681   -6.3353   -0.7284 C   0  0  0  0  0  0  0  0  0  0  0  0
   -0.8254   14.5361    7.3864 C   0  0  0  0  0  0  0  0  0  0  0  0
   -1.3697   15.6854    7.8150 C   0  0  0  0  0  0  0  0  0  0  0  0
   -1.6533    5.8691    6.5846 O   0  0  0  0  0  0  0  0  0  0  0  0
   -5.5495   -7.3096    5.9949 H   0  0  0  0  0  0  0  0  0  0  0  0
   -3.4467   -6.6966    5.0605 H   0  0  0  0  0  0  0  0  0  0  0  0
   -7.1275   -3.3867    8.1078 H   0  0  0  0  0  0  0  0  0  0  0  0
    0.2040   -3.3345    4.5717 H   0  0  0  0  0  0  0  0  0  0  0  0
    1.1149   -1.2104    5.1969 H   0  0  0  0  0  0  0  0  0  0  0  0
   -0.2166    0.3831    6.3360 H   0  0  0  0  0  0  0  0  0  0  0  0
   -8.1009    1.2338    9.1423 H   0  0  0  0  0  0  0  0  0  0  0  0
   -1.2048    1.7736    4.9534 H   0  0  0  0  0  0  0  0  0  0  0  0
   -8.1123    5.9330    9.5586 H   0  0  0  0  0  0  0  0  0  0  0  0
   -0.0183    7.7285    6.3844 H   0  0  0  0  0  0  0  0  0  0  0  0
    0.7472    9.9683    6.3349 H   0  0  0  0  0  0  0  0  0  0  0  0
    0.3974   12.3244    6.7338 H   0  0  0  0  0  0  0  0  0  0  0  0
   -3.1958   13.7146    8.3216 H   0  0  0  0  0  0  0  0  0  0  0  0
   -7.9367   10.4536   10.0366 H   0  0  0  0  0  0  0  0  0  0  0  0
   -7.1788   12.7037   10.0326 H   0  0  0  0  0  0  0  0  0  0  0  0
   -5.0638   13.2666    9.1968 H   0  0  0  0  0  0  0  0  0  0  0  0
   -0.5698    7.1184    2.0051 H   0  0  0  0  0  0  0  0  0  0  0  0
   -0.4814    6.4410    4.2991 H   0  0  0  0  0  0  0  0  0  0  0  0
    0.9696    1.9159    4.1671 H   0  0  0  0  0  0  0  0  0  0  0  0
    1.2101    0.2871    2.4785 H   0  0  0  0  0  0  0  0  0  0  0  0
   -0.3726    6.5613   -0.3820 H   0  0  0  0  0  0  0  0  0  0  0  0
    0.9308   -1.1112   -2.2276 H   0  0  0  0  0  0  0  0  0  0  0  0
    0.4711   -0.6489   -4.5238 H   0  0  0  0  0  0  0  0  0  0  0  0
   -0.2315    1.5635   -5.1989 H   0  0  0  0  0  0  0  0  0  0  0  0
   -0.3829    3.3103   -3.6250 H   0  0  0  0  0  0  0  0  0  0  0  0
   -0.0982   -2.4891    0.7824 H   0  0  0  0  0  0  0  0  0  0  0  0
   -0.8618   -0.9987    1.3400 H   0  0  0  0  0  0  0  0  0  0  0  0
   -0.9841   -1.4842   -0.3668 H   0  0  0  0  0  0  0  0  0  0  0  0
    1.2579    6.1439   -3.8075 H   0  0  0  0  0  0  0  0  0  0  0  0
    1.7534    6.4345   -2.1387 H   0  0  0  0  0  0  0  0  0  0  0  0
    2.0586    4.8531   -2.9044 H   0  0  0  0  0  0  0  0  0  0  0  0
   -7.9691   -7.7799    5.7297 H   0  0  0  0  0  0  0  0  0  0  0  0
  -10.5793   -3.7523    4.9985 H   0  0  0  0  0  0  0  0  0  0  0  0
   -8.9165   -3.8123    6.7324 H   0  0  0  0  0  0  0  0  0  0  0  0
  -10.5532   -9.8672    1.8211 H   0  0  0  0  0  0  0  0  0  0  0  0
  -12.1866   -9.5717    0.1145 H   0  0  0  0  0  0  0  0  0  0  0  0
  -12.7985   -5.5947    1.4190 H   0  0  0  0  0  0  0  0  0  0  0  0
   -9.4996    2.6814    9.6654 H   0  0  0  0  0  0  0  0  0  0  0  0
  -11.0109    4.0416   10.5136 H   0  0  0  0  0  0  0  0  0  0  0  0
  -10.0280    5.3986   10.3265 H   0  0  0  0  0  0  0  0  0  0  0  0
  -13.8081   -8.2162   -1.0220 H   0  0  0  0  0  0  0  0  0  0  0  0
  -15.0223   -6.3592   -1.4732 H   0  0  0  0  0  0  0  0  0  0  0  0
  -14.2892   -5.4874   -0.2251 H   0  0  0  0  0  0  0  0  0  0  0  0
    0.0494   14.6369    6.9215 H   0  0  0  0  0  0  0  0  0  0  0  0
   -0.8998   16.5435    7.6507 H   0  0  0  0  0  0  0  0  0  0  0  0
   -2.2316   15.7228    8.2976 H   0  0  0  0  0  0  0  0  0  0  0  0
  1  2  2  0  0  0  0
  2  3  1  0  0  0  0
  3  4  2  0  0  0  0
  4  5  1  0  0  0  0
  5  6  1  0  0  0  0
  1  6  1  0  0  0  0
  7  8  1  0  0  0  0
  8  9  2  0  0  0  0
  9 10  1  0  0  0  0
  5  7  2  0  0  0  0
  6 10  2  0  0  0  0
 11 12  2  0  0  0  0
 12 13  1  0  0  0  0
  7 11  1  0  0  0  0
  8 14  1  0  0  0  0
 15 16  2  0  0  0  0
 16 17  1  0  0  0  0
 17 18  2  0  0  0  0
 11 15  1  0  0  0  0
 12 18  1  0  0  0  0
 21 22  2  0  0  0  0
 13 19  1  0  0  0  0
 14 22  1  0  0  0  0
 14 13  2  0  0  0  0
 23 24  2  0  0  0  0
 24 25  1  0  0  0  0
 25 26  2  0  0  0  0
 21 26  1  0  0  0  0
 22 23  1  0  0  0  0
 27 28  1  0  0  0  0
 28 29  2  0  0  0  0
 29 30  1  0  0  0  0
 19 27  2  0  0  0  0
 20 30  2  0  0  0  0
 20 19  1  0  0  0  0
 31 32  2  0  0  0  0
 30 32  1  0  0  0  0
 20 21  1  0  0  0  0
 26 31  1  0  0  0  0
 33 34  2  0  0  0  0
 34 35  1  0  0  0  0
 35 36  2  0  0  0  0
 31 36  1  0  0  0  0
 32 33  1  0  0  0  0
 37 38  2  0  0  0  0
 36 38  1  0  0  0  0
 25 37  1  0  0  0  0
 39 40  2  0  0  0  0
 40 41  1  0  0  0  0
 41 42  2  0  0  0  0
 33 39  1  0  0  0  0
 34 42  1  0  0  0  0
 43 44  2  0  0  0  0
 44 45  1  0  0  0  0
 45 46  1  0  0  0  0
 40 43  1  0  0  0  0
 47 48  1  0  0  0  0
 48 49  2  0  0  0  0
 49 50  1  0  0  0  0
 45 47  2  0  0  0  0
 46 50  2  0  0  0  0
 51 52  2  0  0  0  0
 50 52  1  0  0  0  0
 46 41  1  0  0  0  0
 42 51  1  0  0  0  0
 53 54  2  0  0  0  0
 54 55  1  0  0  0  0
 55 56  2  0  0  0  0
 51 53  1  0  0  0  0
 52 56  1  0  0  0  0
 15 57  1  0  0  0  0
  4 57  1  0  0  0  0
 57 58  2  0  0  0  0
 35 59  1  0  0  0  0
 53 59  1  0  0  0  0
 59 60  2  0  0  0  0
 28 61  1  0  0  0  0
 61 62  1  0  0  0  0
 63 64  1  0  0  0  0
 64 65  2  0  0  0  0
 65 66  1  0  0  0  0
 66 67  2  0  0  0  0
 62 63  2  0  0  0  0
 62 67  1  0  0  0  0
 68 69  2  0  0  0  0
 69 70  1  0  0  0  0
 70 71  2  0  0  0  0
 63 68  1  0  0  0  0
 72 73  2  0  0  0  0
 73 74  1  0  0  0  0
 74 75  2  0  0  0  0
 70 72  1  0  0  0  0
 71 75  1  0  0  0  0
 76 77  2  0  0  0  0
 64 71  1  0  0  0  0
 75 76  1  0  0  0  0
 77 65  1  0  0  0  0
 78 79  2  0  0  0  0
 79 80  1  0  0  0  0
 80 81  2  0  0  0  0
 73 78  1  0  0  0  0
 74 81  1  0  0  0  0
 72 82  1  0  0  0  0
 82 83  1  0  0  0  0
 76 84  1  0  0  0  0
 84 85  1  0  0  0  0
 86 87  1  0  0  0  0
 88 89  2  0  0  0  0
 89 90  1  0  0  0  0
 90 91  2  0  0  0  0
 91 92  1  0  0  0  0
 87 88  1  0  0  0  0
 87 92  2  0  0  0  0
 89 93  1  0  0  0  0
 93 94  1  0  0  0  0
 93 95  2  0  0  0  0
 96 97  2  0  0  0  0
 97 98  1  0  0  0  0
 98 99  2  0  0  0  0
 99100  1  0  0  0  0
 94 96  1  0  0  0  0
 94100  2  0  0  0  0
100101  1  0  0  0  0
 90101  1  0  0  0  0
  9102  1  0  0  0  0
 23102  1  0  0  0  0
102103  2  0  0  0  0
 86  1  1  0  0  0  0
 37104  1  0  0  0  0
104105  2  0  0  0  0
 98106  1  0  0  0  0
106107  2  0  0  0  0
 48108  1  0  0  0  0
108109  2  0  0  0  0
 39110  1  0  0  0  0
 29110  1  0  0  0  0
  2111  1  0  0  0  0
  3112  1  0  0  0  0
 10113  1  0  0  0  0
 16114  1  0  0  0  0
 17115  1  0  0  0  0
 18116  1  0  0  0  0
 24117  1  0  0  0  0
 27118  1  0  0  0  0
 38119  1  0  0  0  0
 43120  1  0  0  0  0
 44121  1  0  0  0  0
 47122  1  0  0  0  0
 49123  1  0  0  0  0
 54124  1  0  0  0  0
 55125  1  0  0  0  0
 56126  1  0  0  0  0
 66127  1  0  0  0  0
 67128  1  0  0  0  0
 68129  1  0  0  0  0
 69130  1  0  0  0  0
 77131  1  0  0  0  0
 78132  1  0  0  0  0
 79133  1  0  0  0  0
 80134  1  0  0  0  0
 81135  1  0  0  0  0
 83136  1  0  0  0  0
 83137  1  0  0  0  0
 83138  1  0  0  0  0
 85139  1  0  0  0  0
 85140  1  0  0  0  0
 85141  1  0  0  0  0
 88142  1  0  0  0  0
 91143  1  0  0  0  0
 92144  1  0  0  0  0
 96145  1  0  0  0  0
 97146  1  0  0  0  0
 99147  1  0  0  0  0
104148  1  0  0  0  0
105149  1  0  0  0  0
105150  1  0  0  0  0
106151  1  0  0  0  0
107152  1  0  0  0  0
107153  1  0  0  0  0
108154  1  0  0  0  0
109155  1  0  0  0  0
109156  1  0  0  0  0
M  END
