
  Mrv2101 10312211333D          

198238  0  0  0  0            999 V2000
   -9.5380  -12.7338   -3.9407 C   0  0  0  0  0  0  0  0  0  0  0  0
   -9.6148  -11.3976   -4.3954 C   0  0  0  0  0  0  0  0  0  0  0  0
  -10.6011  -10.9678   -5.3142 C   0  0  0  0  0  0  0  0  0  0  0  0
  -11.4939  -11.9540   -5.8020 C   0  0  0  0  0  0  0  0  0  0  0  0
  -11.4437  -13.3147   -5.3873 C   0  0  0  0  0  0  0  0  0  0  0  0
  -10.4613  -13.6975   -4.4404 C   0  0  0  0  0  0  0  0  0  0  0  0
   -8.5743  -13.1209   -2.9792 C   0  0  0  0  0  0  0  0  0  0  0  0
   -8.5551  -14.4409   -2.4770 C   0  0  0  0  0  0  0  0  0  0  0  0
   -9.4537  -15.4039   -2.9912 C   0  0  0  0  0  0  0  0  0  0  0  0
  -10.4128  -15.0423   -3.9859 C   0  0  0  0  0  0  0  0  0  0  0  0
  -11.3188  -16.0135   -4.5201 C   0  0  0  0  0  0  0  0  0  0  0  0
  -11.2233  -17.3494   -4.0457 C   0  0  0  0  0  0  0  0  0  0  0  0
  -10.2729  -17.6950   -3.0573 C   0  0  0  0  0  0  0  0  0  0  0  0
   -9.4027  -16.7346   -2.5331 C   0  0  0  0  0  0  0  0  0  0  0  0
  -12.3026  -15.6722   -5.5040 C   0  0  0  0  0  0  0  0  0  0  0  0
  -13.1559  -16.7183   -6.0272 C   0  0  0  0  0  0  0  0  0  0  0  0
  -13.0202  -18.0630   -5.5400 C   0  0  0  0  0  0  0  0  0  0  0  0
  -12.0594  -18.3744   -4.5452 C   0  0  0  0  0  0  0  0  0  0  0  0
   -7.6368  -12.2497   -2.4942 O   0  0  0  0  0  0  0  0  0  0  0  0
   -6.7141  -12.5667   -1.5390 C   0  0  0  0  0  0  0  0  0  0  0  0
   -6.7314  -13.8583   -0.9747 C   0  0  0  0  0  0  0  0  0  0  0  0
   -5.8202  -14.1878    0.0605 C   0  0  0  0  0  0  0  0  0  0  0  0
   -4.8734  -13.2183    0.5098 C   0  0  0  0  0  0  0  0  0  0  0  0
   -4.8442  -11.9310   -0.0878 C   0  0  0  0  0  0  0  0  0  0  0  0
   -5.7677  -11.6235   -1.1175 C   0  0  0  0  0  0  0  0  0  0  0  0
   -7.6466  -14.7372   -1.4905 O   0  0  0  0  0  0  0  0  0  0  0  0
   -3.9256  -13.5386    1.5238 C   0  0  0  0  0  0  0  0  0  0  0  0
   -3.8497  -14.8770    2.0137 C   0  0  0  0  0  0  0  0  0  0  0  0
   -4.8498  -15.8002    1.6121 C   0  0  0  0  0  0  0  0  0  0  0  0
   -5.8231  -15.4615    0.6614 C   0  0  0  0  0  0  0  0  0  0  0  0
   -3.0583  -12.5223    2.0384 C   0  0  0  0  0  0  0  0  0  0  0  0
   -2.0720  -12.8489    3.0100 C   0  0  0  0  0  0  0  0  0  0  0  0
   -1.8761  -14.2270    3.2736 C   0  0  0  0  0  0  0  0  0  0  0  0
   -2.7691  -15.2422    2.8649 C   0  0  0  0  0  0  0  0  0  0  0  0
   -3.1484  -11.1835    1.5590 C   0  0  0  0  0  0  0  0  0  0  0  0
   -2.4346  -10.1343    2.2281 C   0  0  0  0  0  0  0  0  0  0  0  0
   -1.3900  -10.4843    3.1344 C   0  0  0  0  0  0  0  0  0  0  0  0
   -1.2716  -11.8240    3.6081 C   0  0  0  0  0  0  0  0  0  0  0  0
   -2.7184   -8.7377    2.0791 C   0  0  0  0  0  0  0  0  0  0  0  0
   -1.6999   -7.7799    2.3505 C   0  0  0  0  0  0  0  0  0  0  0  0
   -0.5553   -8.1594    3.0860 C   0  0  0  0  0  0  0  0  0  0  0  0
   -0.4788   -9.4817    3.5901 C   0  0  0  0  0  0  0  0  0  0  0  0
    0.4494   -7.1968    3.3879 C   0  0  0  0  0  0  0  0  0  0  0  0
    1.2986   -7.4663    4.5038 C   0  0  0  0  0  0  0  0  0  0  0  0
    1.3956   -8.7841    5.0431 C   0  0  0  0  0  0  0  0  0  0  0  0
    0.5202   -9.7881    4.5490 C   0  0  0  0  0  0  0  0  0  0  0  0
    2.3220   -9.0931    6.0953 C   0  0  0  0  0  0  0  0  0  0  0  0
    2.4918  -10.4453    6.5331 C   0  0  0  0  0  0  0  0  0  0  0  0
    1.5947  -11.4083    6.0138 C   0  0  0  0  0  0  0  0  0  0  0  0
    0.5794  -11.0909    5.0863 C   0  0  0  0  0  0  0  0  0  0  0  0
   -1.8527   -6.4252    1.9533 C   0  0  0  0  0  0  0  0  0  0  0  0
   -3.1071   -5.9804    1.4855 C   0  0  0  0  0  0  0  0  0  0  0  0
   -4.1895   -6.8676    1.4286 C   0  0  0  0  0  0  0  0  0  0  0  0
   -3.9968   -8.2252    1.7298 C   0  0  0  0  0  0  0  0  0  0  0  0
   -0.7368   -5.5661    2.0135 C   0  0  0  0  0  0  0  0  0  0  0  0
    0.5413   -5.9680    2.5943 C   0  0  0  0  0  0  0  0  0  0  0  0
  -10.1805  -18.9789   -2.6134 O   0  0  0  0  0  0  0  0  0  0  0  0
  -10.9526  -20.0030   -3.0770 C   0  0  0  0  0  0  0  0  0  0  0  0
  -10.7664  -21.3273   -2.6093 C   0  0  0  0  0  0  0  0  0  0  0  0
  -11.5280  -22.3872   -3.1664 C   0  0  0  0  0  0  0  0  0  0  0  0
  -12.5045  -22.0947   -4.1550 C   0  0  0  0  0  0  0  0  0  0  0  0
  -12.7121  -20.7574   -4.5892 C   0  0  0  0  0  0  0  0  0  0  0  0
  -11.9191  -19.7096   -4.0673 C   0  0  0  0  0  0  0  0  0  0  0  0
   -9.8235  -21.6197   -1.6033 C   0  0  0  0  0  0  0  0  0  0  0  0
   -9.5525  -22.9425   -1.1774 C   0  0  0  0  0  0  0  0  0  0  0  0
  -10.2726  -24.0075   -1.8023 C   0  0  0  0  0  0  0  0  0  0  0  0
  -11.3082  -23.7317   -2.7492 C   0  0  0  0  0  0  0  0  0  0  0  0
  -12.0993  -24.7935   -3.2972 C   0  0  0  0  0  0  0  0  0  0  0  0
  -11.9963  -26.0984   -2.7097 C   0  0  0  0  0  0  0  0  0  0  0  0
  -10.8306  -26.3896   -1.9640 C   0  0  0  0  0  0  0  0  0  0  0  0
   -9.9770  -25.3674   -1.5397 C   0  0  0  0  0  0  0  0  0  0  0  0
  -12.9670  -27.1460   -2.7552 C   0  0  0  0  0  0  0  0  0  0  0  0
  -12.6667  -28.4703   -2.3467 C   0  0  0  0  0  0  0  0  0  0  0  0
  -14.1454  -26.9068   -3.1119 O   0  0  0  0  0  0  0  0  0  0  0  0
  -11.3788  -28.7131   -1.8089 C   0  0  0  0  0  0  0  0  0  0  0  0
  -10.9750  -30.0103   -1.4485 C   0  0  0  0  0  0  0  0  0  0  0  0
  -11.8766  -31.0807   -1.5736 C   0  0  0  0  0  0  0  0  0  0  0  0
  -13.1797  -30.8518   -2.0513 C   0  0  0  0  0  0  0  0  0  0  0  0
  -13.5737  -29.5568   -2.4396 C   0  0  0  0  0  0  0  0  0  0  0  0
  -10.5356  -27.6682   -1.5967 O   0  0  0  0  0  0  0  0  0  0  0  0
    1.7720   -5.1526    2.3679 C   0  0  0  0  0  0  0  0  0  0  0  0
    2.8902   -5.6674    2.5869 O   0  0  0  0  0  0  0  0  0  0  0  0
    1.5485   -3.7733    1.8297 C   0  0  0  0  0  0  0  0  0  0  0  0
    2.5332   -2.6946    1.6859 C   0  0  0  0  0  0  0  0  0  0  0  0
    2.2022   -1.4111    1.1127 C   0  0  0  0  0  0  0  0  0  0  0  0
    0.8491   -1.1032    0.7401 C   0  0  0  0  0  0  0  0  0  0  0  0
   -0.1099   -2.1357    0.8686 C   0  0  0  0  0  0  0  0  0  0  0  0
    0.2088   -3.3908    1.3863 C   0  0  0  0  0  0  0  0  0  0  0  0
   -0.8020   -4.3085    1.4809 O   0  0  0  0  0  0  0  0  0  0  0  0
   -0.3829  -12.0502    4.6997 C   0  0  0  0  0  0  0  0  0  0  0  0
   -0.4857  -13.1493    5.4995 O   0  0  0  0  0  0  0  0  0  0  0  0
   -3.9004  -10.9822    0.3672 C   0  0  0  0  0  0  0  0  0  0  0  0
   -3.6988   -9.9704   -0.3479 O   0  0  0  0  0  0  0  0  0  0  0  0
  -12.3510  -14.2913   -5.8826 C   0  0  0  0  0  0  0  0  0  0  0  0
  -13.2198  -13.8576   -6.6712 O   0  0  0  0  0  0  0  0  0  0  0  0
    0.4356    0.1840    0.3082 C   0  0  0  0  0  0  0  0  0  0  0  0
   -0.7574    0.5600   -0.1803 C   0  0  0  0  0  0  0  0  0  0  0  0
   -8.6321  -23.1706   -0.1354 C   0  0  0  0  0  0  0  0  0  0  0  0
   -7.5519  -22.4305    0.1536 C   0  0  0  0  0  0  0  0  0  0  0  0
  -10.6516   -9.6058   -5.6746 C   0  0  0  0  0  0  0  0  0  0  0  0
  -11.4787   -9.0194   -6.5549 C   0  0  0  0  0  0  0  0  0  0  0  0
   -2.5164  -16.5668    3.2576 C   0  0  0  0  0  0  0  0  0  0  0  0
   -2.0073  -16.9486    4.4388 C   0  0  0  0  0  0  0  0  0  0  0  0
    3.5272  -10.8482    7.4085 C   0  0  0  0  0  0  0  0  0  0  0  0
    3.5908  -11.9642    8.1541 C   0  0  0  0  0  0  0  0  0  0  0  0
    3.8649   -2.8850    2.1551 C   0  0  0  0  0  0  0  0  0  0  0  0
    4.8658   -1.9138    2.0186 C   0  0  0  0  0  0  0  0  0  0  0  0
    4.5659   -0.7037    1.3973 C   0  0  0  0  0  0  0  0  0  0  0  0
    3.2614   -0.4658    0.9473 C   0  0  0  0  0  0  0  0  0  0  0  0
  -14.1507  -16.5295   -7.0348 C   0  0  0  0  0  0  0  0  0  0  0  0
  -14.9539  -17.5651   -7.5355 C   0  0  0  0  0  0  0  0  0  0  0  0
  -14.7910  -18.8728   -7.0424 C   0  0  0  0  0  0  0  0  0  0  0  0
  -13.8290  -19.1300   -6.0416 C   0  0  0  0  0  0  0  0  0  0  0  0
  -12.9201  -24.4934   -4.4248 C   0  0  0  0  0  0  0  0  0  0  0  0
  -13.2281  -23.1483   -4.7640 C   0  0  0  0  0  0  0  0  0  0  0  0
  -13.6787  -20.4665   -5.5796 C   0  0  0  0  0  0  0  0  0  0  0  0
  -14.4601  -21.5204   -6.1297 C   0  0  0  0  0  0  0  0  0  0  0  0
  -14.2191  -22.8624   -5.7488 C   0  0  0  0  0  0  0  0  0  0  0  0
  -15.5952  -19.9113   -7.5713 C   0  0  0  0  0  0  0  0  0  0  0  0
  -15.4370  -21.2453   -7.1159 C   0  0  0  0  0  0  0  0  0  0  0  0
  -14.9266  -23.9170   -6.3965 C   0  0  0  0  0  0  0  0  0  0  0  0
  -16.0770  -23.6444   -7.2021 C   0  0  0  0  0  0  0  0  0  0  0  0
  -16.2415  -22.2964   -7.6438 C   0  0  0  0  0  0  0  0  0  0  0  0
  -13.3681  -25.4814   -5.3295 C   0  0  0  0  0  0  0  0  0  0  0  0
  -14.3502  -25.2025   -6.2849 C   0  0  0  0  0  0  0  0  0  0  0  0
  -16.5496  -19.6214   -8.5704 C   0  0  0  0  0  0  0  0  0  0  0  0
  -17.3451  -20.6553   -9.1100 C   0  0  0  0  0  0  0  0  0  0  0  0
  -17.2032  -21.9845   -8.6409 C   0  0  0  0  0  0  0  0  0  0  0  0
    3.0321   -8.0148    6.6851 C   0  0  0  0  0  0  0  0  0  0  0  0
    2.8576   -6.6990    6.2454 C   0  0  0  0  0  0  0  0  0  0  0  0
    1.9851   -6.4321    5.1870 C   0  0  0  0  0  0  0  0  0  0  0  0
  -15.8941  -17.3185   -8.5020 O   0  0  0  0  0  0  0  0  0  0  0  0
  -16.6964  -18.2915   -9.0313 C   0  0  0  0  0  0  0  0  0  0  0  0
  -18.2846  -20.3608  -10.1272 C   0  0  0  0  0  0  0  0  0  0  0  0
  -18.4428  -19.0318  -10.5717 C   0  0  0  0  0  0  0  0  0  0  0  0
  -17.6547  -17.9998  -10.0221 C   0  0  0  0  0  0  0  0  0  0  0  0
  -17.0503  -24.6208   -7.6099 C   0  0  0  0  0  0  0  0  0  0  0  0
  -17.9475  -24.3249   -8.6794 C   0  0  0  0  0  0  0  0  0  0  0  0
  -18.0138  -23.0043   -9.1869 C   0  0  0  0  0  0  0  0  0  0  0  0
  -18.9141  -22.6780  -10.2319 C   0  0  0  0  0  0  0  0  0  0  0  0
  -19.7003  -23.6823  -10.8186 C   0  0  0  0  0  0  0  0  0  0  0  0
  -19.6378  -24.9983  -10.3318 C   0  0  0  0  0  0  0  0  0  0  0  0
  -18.7988  -25.3262   -9.2401 C   0  0  0  0  0  0  0  0  0  0  0  0
  -17.2286  -25.8805   -6.9764 C   0  0  0  0  0  0  0  0  0  0  0  0
  -18.0519  -26.8772   -7.5208 C   0  0  0  0  0  0  0  0  0  0  0  0
  -18.7996  -26.6242   -8.6799 C   0  0  0  0  0  0  0  0  0  0  0  0
  -19.0204  -21.3826  -10.6574 O   0  0  0  0  0  0  0  0  0  0  0  0
  -19.4759  -27.5627   -9.1650 O   0  0  0  0  0  0  0  0  0  0  0  0
   -8.9414  -10.7153   -4.0365 H   0  0  0  0  0  0  0  0  0  0  0  0
  -12.2074  -11.6760   -6.4772 H   0  0  0  0  0  0  0  0  0  0  0  0
   -8.7245  -17.0258   -1.8238 H   0  0  0  0  0  0  0  0  0  0  0  0
   -5.7766  -10.7024   -1.5616 H   0  0  0  0  0  0  0  0  0  0  0  0
   -4.8870  -16.7443    2.0002 H   0  0  0  0  0  0  0  0  0  0  0  0
   -6.5223  -16.1639    0.4042 H   0  0  0  0  0  0  0  0  0  0  0  0
   -1.0261  -14.5268    3.7470 H   0  0  0  0  0  0  0  0  0  0  0  0
    1.6922  -12.3855    6.2950 H   0  0  0  0  0  0  0  0  0  0  0  0
   -3.2523   -5.0078    1.2072 H   0  0  0  0  0  0  0  0  0  0  0  0
   -5.1154   -6.5268    1.1594 H   0  0  0  0  0  0  0  0  0  0  0  0
   -4.8138   -8.8393    1.6895 H   0  0  0  0  0  0  0  0  0  0  0  0
   -9.3281  -20.8404   -1.1642 H   0  0  0  0  0  0  0  0  0  0  0  0
   -9.1527  -25.6425   -1.0018 H   0  0  0  0  0  0  0  0  0  0  0  0
  -10.0302  -30.1710   -1.0919 H   0  0  0  0  0  0  0  0  0  0  0  0
  -11.5858  -32.0237   -1.3109 H   0  0  0  0  0  0  0  0  0  0  0  0
  -13.8420  -31.6274   -2.1192 H   0  0  0  0  0  0  0  0  0  0  0  0
  -14.5254  -29.4190   -2.7927 H   0  0  0  0  0  0  0  0  0  0  0  0
   -1.0876   -2.0009    0.6053 H   0  0  0  0  0  0  0  0  0  0  0  0
   -1.4494  -13.3202    5.5773 H   0  0  0  0  0  0  0  0  0  0  0  0
    1.0708    0.9387    0.3786 H   0  0  0  0  0  0  0  0  0  0  0  0
   -0.9125    1.5070   -0.4364 H   0  0  0  0  0  0  0  0  0  0  0  0
   -1.5101   -0.0678   -0.3017 H   0  0  0  0  0  0  0  0  0  0  0  0
   -8.7766  -23.9576    0.4544 H   0  0  0  0  0  0  0  0  0  0  0  0
   -6.9630  -22.6830    0.9129 H   0  0  0  0  0  0  0  0  0  0  0  0
   -7.3083  -21.6307   -0.3766 H   0  0  0  0  0  0  0  0  0  0  0  0
  -10.0093   -8.9854   -5.2324 H   0  0  0  0  0  0  0  0  0  0  0  0
  -11.4224   -8.0407   -6.7167 H   0  0  0  0  0  0  0  0  0  0  0  0
  -12.1589   -9.5220   -7.0656 H   0  0  0  0  0  0  0  0  0  0  0  0
   -2.7237  -17.2934    2.6143 H   0  0  0  0  0  0  0  0  0  0  0  0
   -1.8450  -17.9091    4.6223 H   0  0  0  0  0  0  0  0  0  0  0  0
   -1.7849  -16.2952    5.1504 H   0  0  0  0  0  0  0  0  0  0  0  0
    4.3233  -10.2632    7.4921 H   0  0  0  0  0  0  0  0  0  0  0  0
    4.3892  -12.1388    8.7218 H   0  0  0  0  0  0  0  0  0  0  0  0
    2.8645  -12.6377    8.1697 H   0  0  0  0  0  0  0  0  0  0  0  0
    4.1546   -3.7320    2.6295 H   0  0  0  0  0  0  0  0  0  0  0  0
    5.8125   -2.0885    2.3677 H   0  0  0  0  0  0  0  0  0  0  0  0
    5.2947    0.0057    1.2762 H   0  0  0  0  0  0  0  0  0  0  0  0
    3.1271    0.4312    0.4878 H   0  0  0  0  0  0  0  0  0  0  0  0
  -14.3374  -15.6338   -7.4614 H   0  0  0  0  0  0  0  0  0  0  0  0
  -12.9776  -26.4257   -5.3087 H   0  0  0  0  0  0  0  0  0  0  0  0
  -14.6223  -25.9593   -6.9133 H   0  0  0  0  0  0  0  0  0  0  0  0
    3.6673   -8.1529    7.4714 H   0  0  0  0  0  0  0  0  0  0  0  0
    3.3575   -5.9303    6.7010 H   0  0  0  0  0  0  0  0  0  0  0  0
    1.8372   -5.4513    4.9453 H   0  0  0  0  0  0  0  0  0  0  0  0
  -19.1313  -18.8117  -11.2947 H   0  0  0  0  0  0  0  0  0  0  0  0
  -17.7774  -17.0376  -10.3460 H   0  0  0  0  0  0  0  0  0  0  0  0
  -20.3268  -23.4538  -11.5942 H   0  0  0  0  0  0  0  0  0  0  0  0
  -20.2265  -25.7097  -10.7725 H   0  0  0  0  0  0  0  0  0  0  0  0
  -16.7701  -26.1026   -6.0914 H   0  0  0  0  0  0  0  0  0  0  0  0
  -18.1030  -27.7908   -7.0628 H   0  0  0  0  0  0  0  0  0  0  0  0
  7 19  1  0  0  0  0
 19 20  1  0  0  0  0
 21 26  1  0  0  0  0
 26  8  1  0  0  0  0
 13 57  1  0  0  0  0
 57 58  1  0  0  0  0
 69 72  1  0  0  0  0
 72 73  1  0  0  0  0
 72 74  2  0  0  0  0
 75 80  1  0  0  0  0
 70 80  1  0  0  0  0
 56 81  1  0  0  0  0
 81 82  2  0  0  0  0
 81 83  1  0  0  0  0
 55 89  1  0  0  0  0
 88 89  1  0  0  0  0
 50 90  1  0  0  0  0
 38 90  2  0  0  0  0
 90 91  1  0  0  0  0
 35 92  1  0  0  0  0
 24 92  1  0  0  0  0
 92 93  2  0  0  0  0
  5 94  1  0  0  0  0
 15 94  1  0  0  0  0
 94 95  2  0  0  0  0
 86 96  1  0  0  0  0
 96 97  2  0  0  0  0
 65 98  1  0  0  0  0
 98 99  2  0  0  0  0
  3100  1  0  0  0  0
100101  2  0  0  0  0
 34102  1  0  0  0  0
102103  2  0  0  0  0
 48104  1  0  0  0  0
104105  2  0  0  0  0
 85109  2  0  0  0  0
108109  1  0  0  0  0
107108  2  0  0  0  0
106107  1  0  0  0  0
 84106  2  0  0  0  0
 83 88  2  0  0  0  0
 87 88  1  0  0  0  0
 86 87  2  0  0  0  0
 85 86  1  0  0  0  0
 84 85  1  0  0  0  0
 83 84  1  0  0  0  0
 73 79  2  0  0  0  0
 78 79  1  0  0  0  0
 77 78  2  0  0  0  0
 76 77  1  0  0  0  0
 75 76  2  0  0  0  0
 73 75  1  0  0  0  0
111132  1  0  0  0  0
132133  1  0  0  0  0
134147  1  0  0  0  0
140147  1  0  0  0  0
 52 53  2  0  0  0  0
 53 54  1  0  0  0  0
143146  1  0  0  0  0
145146  1  0  0  0  0
144145  2  0  0  0  0
137144  1  0  0  0  0
138143  1  0  0  0  0
142143  2  0  0  0  0
141142  1  0  0  0  0
140141  2  0  0  0  0
139140  1  0  0  0  0
128139  1  0  0  0  0
138139  2  0  0  0  0
137138  1  0  0  0  0
122137  2  0  0  0  0
133136  1  0  0  0  0
135136  2  0  0  0  0
134135  1  0  0  0  0
127134  2  0  0  0  0
133126  2  0  0  0  0
130131  2  0  0  0  0
131 44  1  0  0  0  0
129130  1  0  0  0  0
 47129  2  0  0  0  0
128123  2  0  0  0  0
127128  1  0  0  0  0
126127  1  0  0  0  0
119126  1  0  0  0  0
125121  1  0  0  0  0
124125  2  0  0  0  0
114124  1  0  0  0  0
123120  1  0  0  0  0
122123  1  0  0  0  0
121122  1  0  0  0  0
118121  2  0  0  0  0
120117  2  0  0  0  0
119120  1  0  0  0  0
112119  2  0  0  0  0
115118  1  0  0  0  0
117118  1  0  0  0  0
116117  1  0  0  0  0
113116  2  0  0  0  0
 62116  1  0  0  0  0
115 61  1  0  0  0  0
114115  2  0  0  0  0
 68114  1  0  0  0  0
 17113  1  0  0  0  0
112113  1  0  0  0  0
111112  1  0  0  0  0
110111  2  0  0  0  0
 16110  1  0  0  0  0
 66 71  1  0  0  0  0
 70 71  2  0  0  0  0
 69 70  1  0  0  0  0
 68 69  2  0  0  0  0
 67 68  1  0  0  0  0
 60 67  1  0  0  0  0
 66 67  2  0  0  0  0
 65 66  1  0  0  0  0
 64 65  2  0  0  0  0
 59 64  1  0  0  0  0
 63 18  1  0  0  0  0
 58 63  2  0  0  0  0
 62 63  1  0  0  0  0
 61 62  2  0  0  0  0
 60 61  1  0  0  0  0
 59 60  2  0  0  0  0
 58 59  1  0  0  0  0
 56 43  1  0  0  0  0
 55 56  2  0  0  0  0
 51 55  1  0  0  0  0
 39 54  2  0  0  0  0
 51 52  1  0  0  0  0
 40 51  2  0  0  0  0
 46 50  2  0  0  0  0
 49 50  1  0  0  0  0
 48 49  2  0  0  0  0
 47 48  1  0  0  0  0
 45 47  1  0  0  0  0
 42 46  1  0  0  0  0
 45 46  1  0  0  0  0
 44 45  2  0  0  0  0
 43 44  1  0  0  0  0
 41 43  2  0  0  0  0
 37 42  2  0  0  0  0
 41 42  1  0  0  0  0
 40 41  1  0  0  0  0
 39 40  1  0  0  0  0
 36 39  1  0  0  0  0
 37 38  1  0  0  0  0
 32 38  1  0  0  0  0
 36 37  1  0  0  0  0
 35 36  2  0  0  0  0
 31 35  1  0  0  0  0
 33 34  2  0  0  0  0
 28 34  1  0  0  0  0
 32 33  1  0  0  0  0
 31 32  2  0  0  0  0
 27 31  1  0  0  0  0
 29 30  2  0  0  0  0
 22 30  1  0  0  0  0
 28 29  1  0  0  0  0
 27 28  2  0  0  0  0
 23 27  1  0  0  0  0
 20 25  1  0  0  0  0
 24 25  2  0  0  0  0
 23 24  1  0  0  0  0
 22 23  2  0  0  0  0
 21 22  1  0  0  0  0
 20 21  2  0  0  0  0
 12 18  1  0  0  0  0
 17 18  2  0  0  0  0
 16 17  1  0  0  0  0
 15 16  2  0  0  0  0
 11 15  1  0  0  0  0
  9 14  1  0  0  0  0
 13 14  2  0  0  0  0
 12 13  1  0  0  0  0
 11 12  2  0  0  0  0
 10 11  1  0  0  0  0
  6 10  1  0  0  0  0
  9 10  2  0  0  0  0
  8  9  1  0  0  0  0
  7  8  2  0  0  0  0
  1  7  1  0  0  0  0
  1  6  2  0  0  0  0
  5  6  1  0  0  0  0
  4  5  2  0  0  0  0
  3  4  1  0  0  0  0
  2  3  2  0  0  0  0
  1  2  1  0  0  0  0
146148  2  0  0  0  0
  2149  1  0  0  0  0
  4150  1  0  0  0  0
 14151  1  0  0  0  0
 25152  1  0  0  0  0
 29153  1  0  0  0  0
 30154  1  0  0  0  0
 33155  1  0  0  0  0
 49156  1  0  0  0  0
 52157  1  0  0  0  0
 53158  1  0  0  0  0
 54159  1  0  0  0  0
 64160  1  0  0  0  0
 71161  1  0  0  0  0
 76162  1  0  0  0  0
 77163  1  0  0  0  0
 78164  1  0  0  0  0
 79165  1  0  0  0  0
 87166  1  0  0  0  0
 91167  1  0  0  0  0
 96168  1  0  0  0  0
 97169  1  0  0  0  0
 97170  1  0  0  0  0
 98171  1  0  0  0  0
 99172  1  0  0  0  0
 99173  1  0  0  0  0
100174  1  0  0  0  0
101175  1  0  0  0  0
101176  1  0  0  0  0
102177  1  0  0  0  0
103178  1  0  0  0  0
103179  1  0  0  0  0
104180  1  0  0  0  0
105181  1  0  0  0  0
105182  1  0  0  0  0
106183  1  0  0  0  0
107184  1  0  0  0  0
108185  1  0  0  0  0
109186  1  0  0  0  0
110187  1  0  0  0  0
124188  1  0  0  0  0
125189  1  0  0  0  0
129190  1  0  0  0  0
130191  1  0  0  0  0
131192  1  0  0  0  0
135193  1  0  0  0  0
136194  1  0  0  0  0
141195  1  0  0  0  0
142196  1  0  0  0  0
144197  1  0  0  0  0
145198  1  0  0  0  0
M  END
