
  Mrv2101 10312211403D          

102124  0  0  0  0            999 V2000
   -3.2077   -0.5778    1.7455 C   0  0  0  0  0  0  0  0  0  0  0  0
   -4.1854   -0.0651    2.6359 C   0  0  0  0  0  0  0  0  0  0  0  0
   -5.5541   -0.4328    2.4644 C   0  0  0  0  0  0  0  0  0  0  0  0
   -5.9463   -1.3298    1.4195 C   0  0  0  0  0  0  0  0  0  0  0  0
   -4.9003   -1.9950    0.7387 C   0  0  0  0  0  0  0  0  0  0  0  0
   -3.5749   -1.5499    0.7868 C   0  0  0  0  0  0  0  0  0  0  0  0
   -6.5225    0.0729    3.3682 C   0  0  0  0  0  0  0  0  0  0  0  0
   -6.1138    0.9026    4.4553 C   0  0  0  0  0  0  0  0  0  0  0  0
   -4.7434    1.2653    4.6216 C   0  0  0  0  0  0  0  0  0  0  0  0
   -3.7793    0.7967    3.6906 C   0  0  0  0  0  0  0  0  0  0  0  0
   -7.0785    1.3487    5.3954 C   0  0  0  0  0  0  0  0  0  0  0  0
   -6.6567    2.1463    6.5037 C   0  0  0  0  0  0  0  0  0  0  0  0
   -5.2861    2.5190    6.6769 C   0  0  0  0  0  0  0  0  0  0  0  0
   -4.3263    2.0769    5.7201 C   0  0  0  0  0  0  0  0  0  0  0  0
   -7.6266    2.5644    7.4557 C   0  0  0  0  0  0  0  0  0  0  0  0
   -7.2549    3.3433    8.5758 C   0  0  0  0  0  0  0  0  0  0  0  0
   -4.8804    3.3152    7.7993 C   0  0  0  0  0  0  0  0  0  0  0  0
   -1.8552   -0.1591    1.8248 C   0  0  0  0  0  0  0  0  0  0  0  0
   -0.9098   -0.6316    0.8710 C   0  0  0  0  0  0  0  0  0  0  0  0
   -1.3063   -1.5927   -0.0831 C   0  0  0  0  0  0  0  0  0  0  0  0
   -2.6226   -2.0621   -0.1157 C   0  0  0  0  0  0  0  0  0  0  0  0
   -2.4091    1.1645    3.8226 C   0  0  0  0  0  0  0  0  0  0  0  0
   -1.4525    0.7089    2.8711 C   0  0  0  0  0  0  0  0  0  0  0  0
   -2.9504    2.4325    5.8686 C   0  0  0  0  0  0  0  0  0  0  0  0
   -1.9925    1.9793    4.9096 C   0  0  0  0  0  0  0  0  0  0  0  0
   -3.4936    3.6729    7.9296 C   0  0  0  0  0  0  0  0  0  0  0  0
   -2.5247    3.2354    6.9740 C   0  0  0  0  0  0  0  0  0  0  0  0
   -2.9987    4.4681    8.9922 C   0  0  0  0  0  0  0  0  0  0  0  0
   -1.6618    4.8055    9.1499 C   0  0  0  0  0  0  0  0  0  0  0  0
   -0.6718    4.4000    8.2334 C   0  0  0  0  0  0  0  0  0  0  0  0
   -1.1373    3.5956    7.1285 C   0  0  0  0  0  0  0  0  0  0  0  0
   -0.2502    3.1146    6.1469 C   0  0  0  0  0  0  0  0  0  0  0  0
   -0.6159    2.3253    5.0352 C   0  0  0  0  0  0  0  0  0  0  0  0
    0.3475    1.8884    4.0682 C   0  0  0  0  0  0  0  0  0  0  0  0
   -0.0857    1.0861    2.9721 C   0  0  0  0  0  0  0  0  0  0  0  0
   -8.2517    3.7450    9.5105 C   0  0  0  0  0  0  0  0  0  0  0  0
   -9.5907    3.3810    9.3520 C   0  0  0  0  0  0  0  0  0  0  0  0
   -9.9604    2.6105    8.2495 C   0  0  0  0  0  0  0  0  0  0  0  0
   -8.9890    2.2048    7.3065 C   0  0  0  0  0  0  0  0  0  0  0  0
   -8.4514    0.9783    5.2365 C   0  0  0  0  0  0  0  0  0  0  0  0
   -8.8601    0.1606    4.1404 C   0  0  0  0  0  0  0  0  0  0  0  0
   -7.8861   -0.2977    3.2027 C   0  0  0  0  0  0  0  0  0  0  0  0
   -5.9006    3.6978    8.7328 C   0  0  0  0  0  0  0  0  0  0  0  0
   -5.6899    4.3652    9.7698 O   0  0  0  0  0  0  0  0  0  0  0  0
    0.6535    4.8643    8.5587 C   0  0  0  0  0  0  0  0  0  0  0  0
    1.6532    4.6079    7.8502 O   0  0  0  0  0  0  0  0  0  0  0  0
    0.9351    5.6554    9.7105 C   0  0  0  0  0  0  0  0  0  0  0  0
   -1.3811    5.5585   10.2475 O   0  0  0  0  0  0  0  0  0  0  0  0
   -0.1427    5.9916   10.5603 C   0  0  0  0  0  0  0  0  0  0  0  0
    2.2228    6.1366   10.0686 C   0  0  0  0  0  0  0  0  0  0  0  0
    2.4083    6.9179   11.2273 C   0  0  0  0  0  0  0  0  0  0  0  0
    1.3132    7.2352   12.0505 C   0  0  0  0  0  0  0  0  0  0  0  0
    0.0312    6.7719   11.7165 C   0  0  0  0  0  0  0  0  0  0  0  0
   -8.2724   -1.1321    2.1031 C   0  0  0  0  0  0  0  0  0  0  0  0
  -10.2095   -0.2425    3.9421 C   0  0  0  0  0  0  0  0  0  0  0  0
   -9.6324   -1.5325    1.9852 C   0  0  0  0  0  0  0  0  0  0  0  0
  -10.5892   -1.0847    2.9014 C   0  0  0  0  0  0  0  0  0  0  0  0
  -10.0530   -2.3908    0.9583 C   0  0  0  0  0  0  0  0  0  0  0  0
   -9.1638   -2.7760   -0.0513 C   0  0  0  0  0  0  0  0  0  0  0  0
   -7.8319   -2.2662   -0.0395 C   0  0  0  0  0  0  0  0  0  0  0  0
   -7.3277   -1.5837    1.1310 C   0  0  0  0  0  0  0  0  0  0  0  0
   -7.1124   -2.4489   -1.2513 C   0  0  0  0  0  0  0  0  0  0  0  0
   -7.5195   -3.3558   -2.2535 C   0  0  0  0  0  0  0  0  0  0  0  0
   -8.7876   -3.9859   -2.1504 C   0  0  0  0  0  0  0  0  0  0  0  0
   -9.6273   -3.6401   -1.0742 C   0  0  0  0  0  0  0  0  0  0  0  0
   -6.6744   -3.6587   -3.3460 C   0  0  0  0  0  0  0  0  0  0  0  0
   -7.0758   -4.5946   -4.3160 C   0  0  0  0  0  0  0  0  0  0  0  0
   -8.3275   -5.2291   -4.2096 C   0  0  0  0  0  0  0  0  0  0  0  0
   -9.1828   -4.9255   -3.1324 C   0  0  0  0  0  0  0  0  0  0  0  0
    0.4177   -0.1589    0.9015 C   0  0  0  0  0  0  0  0  0  0  0  0
    1.7374    2.2057    4.1260 C   0  0  0  0  0  0  0  0  0  0  0  0
    0.8444    0.6516    1.9752 C   0  0  0  0  0  0  0  0  0  0  0  0
   -9.3738    1.4303    6.2101 C   0  0  0  0  0  0  0  0  0  0  0  0
    2.2034    1.0186    2.0747 C   0  0  0  0  0  0  0  0  0  0  0  0
    2.6453    1.7885    3.1484 C   0  0  0  0  0  0  0  0  0  0  0  0
    1.2947   -0.4920   -0.0929 O   0  0  0  0  0  0  0  0  0  0  0  0
   -5.0849   -2.8314    0.1881 H   0  0  0  0  0  0  0  0  0  0  0  0
   -0.6415   -1.9775   -0.7564 H   0  0  0  0  0  0  0  0  0  0  0  0
   -2.8808   -2.7620   -0.8169 H   0  0  0  0  0  0  0  0  0  0  0  0
   -3.5751    4.8592    9.7156 H   0  0  0  0  0  0  0  0  0  0  0  0
    0.7132    3.3477    6.2492 H   0  0  0  0  0  0  0  0  0  0  0  0
   -8.0221    4.3129   10.3281 H   0  0  0  0  0  0  0  0  0  0  0  0
  -10.2905    3.6762   10.0366 H   0  0  0  0  0  0  0  0  0  0  0  0
  -10.9445    2.3508    8.1486 H   0  0  0  0  0  0  0  0  0  0  0  0
    3.0408    5.9240    9.4908 H   0  0  0  0  0  0  0  0  0  0  0  0
    3.3409    7.2582   11.4737 H   0  0  0  0  0  0  0  0  0  0  0  0
    1.4464    7.8050   12.8900 H   0  0  0  0  0  0  0  0  0  0  0  0
   -0.7699    7.0075   12.3082 H   0  0  0  0  0  0  0  0  0  0  0  0
  -10.9738    0.0490    4.5439 H   0  0  0  0  0  0  0  0  0  0  0  0
  -11.5735   -1.3632    2.8172 H   0  0  0  0  0  0  0  0  0  0  0  0
  -11.0259   -2.7171    0.9245 H   0  0  0  0  0  0  0  0  0  0  0  0
   -6.2645   -1.9120   -1.4281 H   0  0  0  0  0  0  0  0  0  0  0  0
  -10.5794   -4.0224   -1.0386 H   0  0  0  0  0  0  0  0  0  0  0  0
   -5.7569   -3.2119   -3.4343 H   0  0  0  0  0  0  0  0  0  0  0  0
   -6.4540   -4.8161   -5.0974 H   0  0  0  0  0  0  0  0  0  0  0  0
   -8.6151   -5.9126   -4.9157 H   0  0  0  0  0  0  0  0  0  0  0  0
  -10.0895   -5.3981   -3.0671 H   0  0  0  0  0  0  0  0  0  0  0  0
    2.1541    2.7497    4.8743 H   0  0  0  0  0  0  0  0  0  0  0  0
  -10.3610    1.2002    6.1575 H   0  0  0  0  0  0  0  0  0  0  0  0
    2.8948    0.7228    1.3805 H   0  0  0  0  0  0  0  0  0  0  0  0
    3.6332    2.0450    3.2217 H   0  0  0  0  0  0  0  0  0  0  0  0
    0.7765   -0.4671   -0.9263 H   0  0  0  0  0  0  0  0  0  0  0  0
 43 44  2  0  0  0  0
 30 45  1  0  0  0  0
 45 46  2  0  0  0  0
 45 47  1  0  0  0  0
 29 48  1  0  0  0  0
 48 49  1  0  0  0  0
 56 57  1  0  0  0  0
 55 57  2  0  0  0  0
 54 56  1  0  0  0  0
 41 55  1  0  0  0  0
 42 54  1  0  0  0  0
 42  7  1  0  0  0  0
 41 42  2  0  0  0  0
 40 41  1  0  0  0  0
 11 40  1  0  0  0  0
 35 23  1  0  0  0  0
 34 35  1  0  0  0  0
 33 34  1  0  0  0  0
 25 33  2  0  0  0  0
 32 33  1  0  0  0  0
 22 25  1  0  0  0  0
 24 25  1  0  0  0  0
 24 14  1  0  0  0  0
 22 23  2  0  0  0  0
 18 23  1  0  0  0  0
 22 10  1  0  0  0  0
  6 21  1  0  0  0  0
 20 21  2  0  0  0  0
 19 20  1  0  0  0  0
 18 19  1  0  0  0  0
  1 18  2  0  0  0  0
  9 14  2  0  0  0  0
  8 11  1  0  0  0  0
  2 10  2  0  0  0  0
  9 10  1  0  0  0  0
  8  9  1  0  0  0  0
  7  8  2  0  0  0  0
  3  7  1  0  0  0  0
  6  1  1  0  0  0  0
  5  6  2  0  0  0  0
  4  5  1  0  0  0  0
  3  4  2  0  0  0  0
  2  3  1  0  0  0  0
  1  2  1  0  0  0  0
 53 49  2  0  0  0  0
 52 53  1  0  0  0  0
 51 52  2  0  0  0  0
 50 51  1  0  0  0  0
 47 50  2  0  0  0  0
 47 49  1  0  0  0  0
 17 43  1  0  0  0  0
 16 43  1  0  0  0  0
 15 39  2  0  0  0  0
 38 39  1  0  0  0  0
 31 32  2  0  0  0  0
 27 31  1  0  0  0  0
 30 31  1  0  0  0  0
 29 30  2  0  0  0  0
 28 29  1  0  0  0  0
 26 28  2  0  0  0  0
 24 27  2  0  0  0  0
 27 26  1  0  0  0  0
 17 26  1  0  0  0  0
 13 17  2  0  0  0  0
 15 16  1  0  0  0  0
 13 14  1  0  0  0  0
 12 13  1  0  0  0  0
 12 11  2  0  0  0  0
 37 38  2  0  0  0  0
 36 37  1  0  0  0  0
 16 36  2  0  0  0  0
 58 59  1  0  0  0  0
 59 60  2  0  0  0  0
 60 61  1  0  0  0  0
 54 61  2  0  0  0  0
 56 58  2  0  0  0  0
  4 61  1  0  0  0  0
 62 63  2  0  0  0  0
 63 64  1  0  0  0  0
 64 65  2  0  0  0  0
 59 65  1  0  0  0  0
 60 62  1  0  0  0  0
 66 67  2  0  0  0  0
 67 68  1  0  0  0  0
 68 69  2  0  0  0  0
 63 66  1  0  0  0  0
 64 69  1  0  0  0  0
 19 70  2  0  0  0  0
 40 73  2  0  0  0  0
 73 39  1  0  0  0  0
 12 15  1  0  0  0  0
 74 75  2  0  0  0  0
 72 74  1  0  0  0  0
 35 72  2  0  0  0  0
 75 71  1  0  0  0  0
 34 71  2  0  0  0  0
 72 70  1  0  0  0  0
 70 76  1  0  0  0  0
  5 77  1  0  0  0  0
 20 78  1  0  0  0  0
 21 79  1  0  0  0  0
 28 80  1  0  0  0  0
 32 81  1  0  0  0  0
 36 82  1  0  0  0  0
 37 83  1  0  0  0  0
 38 84  1  0  0  0  0
 50 85  1  0  0  0  0
 51 86  1  0  0  0  0
 52 87  1  0  0  0  0
 53 88  1  0  0  0  0
 55 89  1  0  0  0  0
 57 90  1  0  0  0  0
 58 91  1  0  0  0  0
 62 92  1  0  0  0  0
 65 93  1  0  0  0  0
 66 94  1  0  0  0  0
 67 95  1  0  0  0  0
 68 96  1  0  0  0  0
 69 97  1  0  0  0  0
 71 98  1  0  0  0  0
 73 99  1  0  0  0  0
 74100  1  0  0  0  0
 75101  1  0  0  0  0
 76102  1  0  0  0  0
M  END
