
  Mrv2101 10312211403D          

 93115  0  0  0  0            999 V2000
   -2.6906   -2.5637   -0.0000 C   0  0  0  0  0  0  0  0  0  0  0  0
   -3.4406   -1.3997   -0.0000 C   0  0  0  0  0  0  0  0  0  0  0  0
   -3.2816   -3.7817   -0.0000 C   0  0  0  0  0  0  0  0  0  0  0  0
   -2.3790   -4.7036   -0.0000 C   0  0  0  0  0  0  0  0  0  0  0  0
   -1.2243   -4.1295    0.0000 C   0  0  0  0  0  0  0  0  0  0  0  0
   -1.2971   -2.8120    0.0000 C   0  0  0  0  0  0  0  0  0  0  0  0
   -2.5613   -6.0356   -0.0000 C   0  0  0  0  0  0  0  0  0  0  0  0
   -1.4943   -6.8881    0.0000 C   0  0  0  0  0  0  0  0  0  0  0  0
   -0.3081   -6.2608    0.0000 C   0  0  0  0  0  0  0  0  0  0  0  0
   -0.1955   -4.9358    0.0000 C   0  0  0  0  0  0  0  0  0  0  0  0
   -1.5923   -8.2418   -0.0000 C   0  0  0  0  0  0  0  0  0  0  0  0
   -0.3364   -8.9781   -0.0000 C   0  0  0  0  0  0  0  0  0  0  0  0
   -0.7649   -0.7662    0.0000 C   0  0  0  0  0  0  0  0  0  0  0  0
   -2.2726   -0.4327    0.0000 C   0  0  0  0  0  0  0  0  0  0  0  0
   -0.0580   -2.0868    0.0000 C   0  0  0  0  0  0  0  0  0  0  0  0
    1.0036   -4.3491    0.0000 C   0  0  0  0  0  0  0  0  0  0  0  0
    1.3088   -2.9122    0.0000 C   0  0  0  0  0  0  0  0  0  0  0  0
    0.8715   -6.7716    0.0000 C   0  0  0  0  0  0  0  0  0  0  0  0
    1.6830   -5.5943    0.0000 C   0  0  0  0  0  0  0  0  0  0  0  0
    0.9930   -8.1736   -0.0000 C   0  0  0  0  0  0  0  0  0  0  0  0
    2.4622   -8.2459   -0.0000 C   0  0  0  0  0  0  0  0  0  0  0  0
    3.4477   -7.0914   -0.0000 C   0  0  0  0  0  0  0  0  0  0  0  0
    3.0415   -5.6634    0.0000 C   0  0  0  0  0  0  0  0  0  0  0  0
    3.5898   -4.2883   -0.0000 C   0  0  0  0  0  0  0  0  0  0  0  0
    2.8036   -3.0041    0.0000 C   0  0  0  0  0  0  0  0  0  0  0  0
   -3.3744    1.8696    0.0000 C   0  0  0  0  0  0  0  0  0  0  0  0
   -2.2947    0.9710    0.0000 C   0  0  0  0  0  0  0  0  0  0  0  0
   -0.7794  -10.3694   -0.0000 C   0  0  0  0  0  0  0  0  0  0  0  0
   -2.1877  -10.8463   -0.0000 C   0  0  0  0  0  0  0  0  0  0  0  0
   -3.3239   -9.9540   -0.0000 C   0  0  0  0  0  0  0  0  0  0  0  0
   -2.9899   -8.6372   -0.0000 C   0  0  0  0  0  0  0  0  0  0  0  0
   -3.8234   -6.4351   -0.0000 C   0  0  0  0  0  0  0  0  0  0  0  0
   -4.8573   -5.5799   -0.0000 C   0  0  0  0  0  0  0  0  0  0  0  0
   -4.5591   -4.1946   -0.0000 C   0  0  0  0  0  0  0  0  0  0  0  0
    4.8232   -7.4346   -0.0000 C   0  0  0  0  0  0  0  0  0  0  0  0
    5.6876   -6.5248   -0.0000 O   0  0  0  0  0  0  0  0  0  0  0  0
    5.2617   -8.7821   -0.0000 C   0  0  0  0  0  0  0  0  0  0  0  0
    2.9636   -9.5133   -0.0000 O   0  0  0  0  0  0  0  0  0  0  0  0
    4.2917   -9.8180   -0.0000 C   0  0  0  0  0  0  0  0  0  0  0  0
    6.6337   -9.1426   -0.0000 C   0  0  0  0  0  0  0  0  0  0  0  0
    7.0257  -10.4933   -0.0000 C   0  0  0  0  0  0  0  0  0  0  0  0
    6.0534  -11.5076   -0.0000 C   0  0  0  0  0  0  0  0  0  0  0  0
    4.6876  -11.1708   -0.0000 C   0  0  0  0  0  0  0  0  0  0  0  0
   -5.4166   -3.1646   -0.0000 C   0  0  0  0  0  0  0  0  0  0  0  0
   -6.0255   -6.2851   -0.0000 C   0  0  0  0  0  0  0  0  0  0  0  0
   -6.7168   -3.7079   -0.0000 C   0  0  0  0  0  0  0  0  0  0  0  0
   -7.0489   -5.1933    0.0000 C   0  0  0  0  0  0  0  0  0  0  0  0
   -7.2928   -2.4229    0.0000 C   0  0  0  0  0  0  0  0  0  0  0  0
   -6.3223   -1.3372    0.0000 C   0  0  0  0  0  0  0  0  0  0  0  0
   -4.9535   -1.7729   -0.0000 C   0  0  0  0  0  0  0  0  0  0  0  0
   -6.8403   -0.0271    0.0000 C   0  0  0  0  0  0  0  0  0  0  0  0
   -8.2319    0.2275    0.0000 C   0  0  0  0  0  0  0  0  0  0  0  0
   -9.1577   -0.8552    0.0000 C   0  0  0  0  0  0  0  0  0  0  0  0
   -8.6778   -2.1812    0.0000 C   0  0  0  0  0  0  0  0  0  0  0  0
   -8.7197    1.5552    0.0000 C   0  0  0  0  0  0  0  0  0  0  0  0
  -10.1022    1.8102    0.0000 C   0  0  0  0  0  0  0  0  0  0  0  0
  -11.0147    0.7422    0.0000 C   0  0  0  0  0  0  0  0  0  0  0  0
  -10.5463   -0.5843    0.0000 C   0  0  0  0  0  0  0  0  0  0  0  0
   -0.0679    0.4393    0.0000 C   0  0  0  0  0  0  0  0  0  0  0  0
   -3.1521    3.2597   -0.0000 C   0  0  0  0  0  0  0  0  0  0  0  0
   -0.9881    1.4823    0.0000 C   0  0  0  0  0  0  0  0  0  0  0  0
   -4.0967   -7.7098   -0.0000 C   0  0  0  0  0  0  0  0  0  0  0  0
   -0.7415    2.8714    0.0000 C   0  0  0  0  0  0  0  0  0  0  0  0
   -1.8361    3.7601    0.0000 C   0  0  0  0  0  0  0  0  0  0  0  0
    1.1785    0.5623    0.0000 O   0  0  0  0  0  0  0  0  0  0  0  0
   -5.5031   -7.7267   -0.0000 C   0  0  0  0  0  0  0  0  0  0  0  0
   -5.7847   -9.1593    0.0000 C   0  0  0  0  0  0  0  0  0  0  0  0
   -4.7501  -10.2350   -0.0000 C   0  0  0  0  0  0  0  0  0  0  0  0
   -5.0117  -11.6235    0.0000 C   0  0  0  0  0  0  0  0  0  0  0  0
   -3.9630  -12.5823   -0.0000 C   0  0  0  0  0  0  0  0  0  0  0  0
   -2.5924  -12.2033   -0.0000 C   0  0  0  0  0  0  0  0  0  0  0  0
    4.6066   -4.1946   -0.0000 H   0  0  0  0  0  0  0  0  0  0  0  0
    3.4478   -2.1517    0.0000 H   0  0  0  0  0  0  0  0  0  0  0  0
   -4.3125    1.5281    0.0000 H   0  0  0  0  0  0  0  0  0  0  0  0
   -0.0414  -11.0760   -0.0000 H   0  0  0  0  0  0  0  0  0  0  0  0
    7.3640   -8.4265   -0.0000 H   0  0  0  0  0  0  0  0  0  0  0  0
    8.0194  -10.7352   -0.0000 H   0  0  0  0  0  0  0  0  0  0  0  0
    6.3419  -12.4886   -0.0000 H   0  0  0  0  0  0  0  0  0  0  0  0
    3.9835  -11.9120   -0.0000 H   0  0  0  0  0  0  0  0  0  0  0  0
   -8.0311   -5.4660    0.0000 H   0  0  0  0  0  0  0  0  0  0  0  0
   -6.2165    0.7576    0.0000 H   0  0  0  0  0  0  0  0  0  0  0  0
   -9.3313   -2.9676    0.0000 H   0  0  0  0  0  0  0  0  0  0  0  0
   -8.0732    2.3487    0.0000 H   0  0  0  0  0  0  0  0  0  0  0  0
  -10.4454    2.7733   -0.0000 H   0  0  0  0  0  0  0  0  0  0  0  0
  -11.2292   -1.3471    0.0000 H   0  0  0  0  0  0  0  0  0  0  0  0
   -3.9465    3.9044   -0.0000 H   0  0  0  0  0  0  0  0  0  0  0  0
    0.2136    3.2350    0.0000 H   0  0  0  0  0  0  0  0  0  0  0  0
   -1.6799    4.7708   -0.0000 H   0  0  0  0  0  0  0  0  0  0  0  0
   -6.7658   -9.4369    0.0000 H   0  0  0  0  0  0  0  0  0  0  0  0
   -5.9807  -11.9505    0.0000 H   0  0  0  0  0  0  0  0  0  0  0  0
   -4.2051  -13.5760   -0.0000 H   0  0  0  0  0  0  0  0  0  0  0  0
   -1.8846  -12.9399   -0.0000 H   0  0  0  0  0  0  0  0  0  0  0  0
  -12.0206    0.9308   -0.0000 H   0  0  0  0  0  0  0  0  0  0  0  0
 22 35  1  0  0  0  0
 35 36  2  0  0  0  0
 35 37  1  0  0  0  0
 21 38  1  0  0  0  0
 38 39  1  0  0  0  0
 46 47  2  0  0  0  0
 45 47  1  0  0  0  0
 44 46  1  0  0  0  0
 33 45  2  0  0  0  0
 34 44  2  0  0  0  0
 34  3  1  0  0  0  0
 33 34  1  0  0  0  0
 32 33  1  0  0  0  0
  7 32  1  0  0  0  0
 26 27  2  0  0  0  0
 17 25  1  0  0  0  0
 24 25  2  0  0  0  0
 15 17  1  0  0  0  0
 16 17  2  0  0  0  0
 16 10  1  0  0  0  0
 15  6  2  0  0  0  0
 13 14  2  0  0  0  0
  5 10  2  0  0  0  0
  4  7  2  0  0  0  0
  5  6  1  0  0  0  0
  4  5  1  0  0  0  0
  3  4  1  0  0  0  0
  1  3  2  0  0  0  0
  1  2  1  0  0  0  0
 43 39  2  0  0  0  0
 42 43  1  0  0  0  0
 41 42  2  0  0  0  0
 40 41  1  0  0  0  0
 37 40  2  0  0  0  0
 37 39  1  0  0  0  0
 11 31  2  0  0  0  0
 30 31  1  0  0  0  0
 23 24  1  0  0  0  0
 19 23  2  0  0  0  0
 22 23  1  0  0  0  0
 21 22  2  0  0  0  0
 20 21  1  0  0  0  0
 18 20  2  0  0  0  0
 16 19  1  0  0  0  0
 19 18  1  0  0  0  0
 11 12  1  0  0  0  0
  9 10  1  0  0  0  0
  8  9  2  0  0  0  0
  8  7  1  0  0  0  0
 29 30  1  0  0  0  0
 28 29  1  0  0  0  0
 12 28  2  0  0  0  0
 48 49  2  0  0  0  0
 49 50  1  0  0  0  0
 44 50  1  0  0  0  0
  2 50  2  0  0  0  0
 51 52  2  0  0  0  0
 52 53  1  0  0  0  0
 53 54  2  0  0  0  0
 48 54  1  0  0  0  0
 49 51  1  0  0  0  0
 55 56  2  0  0  0  0
 56 57  1  0  0  0  0
 57 58  2  0  0  0  0
 52 55  1  0  0  0  0
 53 58  1  0  0  0  0
 13 59  1  0  0  0  0
 32 62  2  0  0  0  0
 62 31  1  0  0  0  0
  8 11  1  0  0  0  0
 63 64  1  0  0  0  0
 61 63  2  0  0  0  0
 27 61  1  0  0  0  0
 64 60  2  0  0  0  0
 26 60  1  0  0  0  0
 61 59  1  0  0  0  0
 59 65  2  0  0  0  0
 46 48  1  0  0  0  0
  1  6  1  0  0  0  0
 14  2  1  0  0  0  0
 15 13  1  0  0  0  0
 14 27  1  0  0  0  0
 18  9  1  0  0  0  0
 20 12  1  0  0  0  0
 62 66  1  0  0  0  0
 45 66  1  0  0  0  0
 66 67  2  0  0  0  0
 30 68  2  0  0  0  0
 68 67  1  0  0  0  0
 68 69  1  0  0  0  0
 69 70  2  0  0  0  0
 70 71  1  0  0  0  0
 71 29  2  0  0  0  0
 24 72  1  0  0  0  0
 25 73  1  0  0  0  0
 26 74  1  0  0  0  0
 28 75  1  0  0  0  0
 40 76  1  0  0  0  0
 41 77  1  0  0  0  0
 42 78  1  0  0  0  0
 43 79  1  0  0  0  0
 47 80  1  0  0  0  0
 51 81  1  0  0  0  0
 54 82  1  0  0  0  0
 55 83  1  0  0  0  0
 56 84  1  0  0  0  0
 58 85  1  0  0  0  0
 60 86  1  0  0  0  0
 63 87  1  0  0  0  0
 64 88  1  0  0  0  0
 67 89  1  0  0  0  0
 69 90  1  0  0  0  0
 70 91  1  0  0  0  0
 71 92  1  0  0  0  0
 57 93  1  0  0  0  0
M  END
