
  Mrv2101 10312211443D          

388518  0  0  0  0            999 V2000
  -22.2929  -11.9568  -10.9304 C   0  0  0  0  0  0  0  0  0  0  0  0
  -22.4399  -10.7895  -10.0873 C   0  0  0  0  0  0  0  0  0  0  0  0
  -23.7095  -10.2098   -9.7446 C   0  0  0  0  0  0  0  0  0  0  0  0
  -24.8549  -10.8861  -10.2379 C   0  0  0  0  0  0  0  0  0  0  0  0
  -24.7591  -12.0394  -11.0217 C   0  0  0  0  0  0  0  0  0  0  0  0
  -23.5052  -12.5609  -11.3579 C   0  0  0  0  0  0  0  0  0  0  0  0
  -21.2511  -10.2549   -9.5887 C   0  0  0  0  0  0  0  0  0  0  0  0
  -20.0118  -10.8705   -9.8927 C   0  0  0  0  0  0  0  0  0  0  0  0
  -19.7567  -11.9349  -10.7786 C   0  0  0  0  0  0  0  0  0  0  0  0
  -20.9827  -12.4743  -11.3088 C   0  0  0  0  0  0  0  0  0  0  0  0
  -18.4202  -12.4071  -11.1600 C   0  0  0  0  0  0  0  0  0  0  0  0
  -18.3756  -13.4457  -12.1325 C   0  0  0  0  0  0  0  0  0  0  0  0
  -19.5653  -13.9994  -12.6436 C   0  0  0  0  0  0  0  0  0  0  0  0
  -20.8209  -13.5291  -12.2420 C   0  0  0  0  0  0  0  0  0  0  0  0
  -17.1067  -11.9523  -10.7159 C   0  0  0  0  0  0  0  0  0  0  0  0
  -15.8217  -12.3415  -11.2570 C   0  0  0  0  0  0  0  0  0  0  0  0
  -14.5574  -11.6772  -10.8456 C   0  0  0  0  0  0  0  0  0  0  0  0
  -14.5249  -10.6913   -9.7891 C   0  0  0  0  0  0  0  0  0  0  0  0
  -15.7287  -10.4940   -9.2838 C   0  0  0  0  0  0  0  0  0  0  0  0
  -16.9207  -11.0301   -9.6992 C   0  0  0  0  0  0  0  0  0  0  0  0
  -13.7311   -9.7340   -9.0345 C   0  0  0  0  0  0  0  0  0  0  0  0
  -12.3374   -9.7239   -9.3097 C   0  0  0  0  0  0  0  0  0  0  0  0
  -11.5814   -8.8141   -8.5384 C   0  0  0  0  0  0  0  0  0  0  0  0
  -14.4680   -7.8042   -7.0353 C   0  0  0  0  0  0  0  0  0  0  0  0
  -14.5316   -8.8974   -8.0719 C   0  0  0  0  0  0  0  0  0  0  0  0
  -15.8336   -6.5930   -5.0186 C   0  0  0  0  0  0  0  0  0  0  0  0
  -16.9318   -6.1775   -4.1524 C   0  0  0  0  0  0  0  0  0  0  0  0
  -16.5698   -5.9724   -2.8092 C   0  0  0  0  0  0  0  0  0  0  0  0
  -15.2443   -5.8605   -2.8447 C   0  0  0  0  0  0  0  0  0  0  0  0
  -14.7868   -6.2073   -4.1847 C   0  0  0  0  0  0  0  0  0  0  0  0
  -14.5238   -5.2743   -1.7637 C   0  0  0  0  0  0  0  0  0  0  0  0
  -14.7432   -4.9520   -0.3428 C   0  0  0  0  0  0  0  0  0  0  0  0
  -13.5120   -4.5998    0.3175 C   0  0  0  0  0  0  0  0  0  0  0  0
  -12.2587   -4.4307   -0.2368 C   0  0  0  0  0  0  0  0  0  0  0  0
  -12.2864   -4.4909   -1.5758 C   0  0  0  0  0  0  0  0  0  0  0  0
  -13.3156   -4.9298   -2.3301 C   0  0  0  0  0  0  0  0  0  0  0  0
  -21.0446   -9.1284   -8.7647 C   0  0  0  0  0  0  0  0  0  0  0  0
  -19.7102   -9.1483   -8.5513 C   0  0  0  0  0  0  0  0  0  0  0  0
  -19.0998  -10.1850   -9.1576 C   0  0  0  0  0  0  0  0  0  0  0  0
  -11.1789   -4.5036   -2.2801 C   0  0  0  0  0  0  0  0  0  0  0  0
  -11.5281   -4.9250   -3.5267 C   0  0  0  0  0  0  0  0  0  0  0  0
  -12.8341   -5.2301   -3.5875 C   0  0  0  0  0  0  0  0  0  0  0  0
  -13.0842   -4.3607    1.5693 C   0  0  0  0  0  0  0  0  0  0  0  0
  -11.6947   -4.2657    1.7560 C   0  0  0  0  0  0  0  0  0  0  0  0
  -11.0421   -4.3150    0.4913 C   0  0  0  0  0  0  0  0  0  0  0  0
  -17.3841   -5.7334   -1.6812 C   0  0  0  0  0  0  0  0  0  0  0  0
  -18.7379   -5.4842   -1.9971 C   0  0  0  0  0  0  0  0  0  0  0  0
  -19.1679   -5.4582   -3.3310 C   0  0  0  0  0  0  0  0  0  0  0  0
  -18.2725   -5.7850   -4.3873 C   0  0  0  0  0  0  0  0  0  0  0  0
  -13.3668  -11.9418  -11.5224 C   0  0  0  0  0  0  0  0  0  0  0  0
  -15.9187  -13.3966  -12.2029 C   0  0  0  0  0  0  0  0  0  0  0  0
  -12.0921  -11.4556  -11.2550 C   0  0  0  0  0  0  0  0  0  0  0  0
  -11.6031  -10.5565  -10.2728 C   0  0  0  0  0  0  0  0  0  0  0  0
  -15.7404   -7.2229   -6.3445 C   0  0  0  0  0  0  0  0  0  0  0  0
  -18.7920   -5.6795   -5.6594 C   0  0  0  0  0  0  0  0  0  0  0  0
  -17.1435   -7.3005   -6.8096 C   0  0  0  0  0  0  0  0  0  0  0  0
  -18.4311   -6.6305   -6.5881 C   0  0  0  0  0  0  0  0  0  0  0  0
  -16.9790   -5.8106   -0.3084 C   0  0  0  0  0  0  0  0  0  0  0  0
  -15.9670   -5.0742    0.4183 C   0  0  0  0  0  0  0  0  0  0  0  0
  -17.7518  -10.2656   -8.9928 C   0  0  0  0  0  0  0  0  0  0  0  0
  -23.9820   -9.0337   -8.9677 C   0  0  0  0  0  0  0  0  0  0  0  0
  -21.7639   -8.0803   -8.1480 C   0  0  0  0  0  0  0  0  0  0  0  0
  -23.1612   -8.0924   -8.2926 C   0  0  0  0  0  0  0  0  0  0  0  0
   -9.9502   -4.5419   -1.6788 C   0  0  0  0  0  0  0  0  0  0  0  0
   -9.7566   -4.3304   -0.2497 C   0  0  0  0  0  0  0  0  0  0  0  0
  -18.9972   -8.2205   -7.8261 C   0  0  0  0  0  0  0  0  0  0  0  0
  -19.5789   -7.1749   -7.2435 C   0  0  0  0  0  0  0  0  0  0  0  0
  -21.0151   -7.0785   -7.3879 C   0  0  0  0  0  0  0  0  0  0  0  0
  -17.0393   -9.3412   -8.2173 C   0  0  0  0  0  0  0  0  0  0  0  0
  -15.7243   -9.5022   -8.3855 C   0  0  0  0  0  0  0  0  0  0  0  0
  -17.1454  -13.9407  -12.6175 C   0  0  0  0  0  0  0  0  0  0  0  0
  -13.4421   -6.0096   -4.5787 C   0  0  0  0  0  0  0  0  0  0  0  0
  -12.6151   -6.4785   -5.6701 C   0  0  0  0  0  0  0  0  0  0  0  0
  -17.6445   -8.2922   -7.6100 C   0  0  0  0  0  0  0  0  0  0  0  0
   -0.4698    3.8820   -0.5688 C   0  0  0  0  0  0  0  0  0  0  0  0
    0.2442    2.7434   -1.0834 C   0  0  0  0  0  0  0  0  0  0  0  0
    1.6525    2.7291   -1.1607 C   0  0  0  0  0  0  0  0  0  0  0  0
    2.2570    4.0076   -1.3049 C   0  0  0  0  0  0  0  0  0  0  0  0
    1.5432    5.1920   -1.0559 C   0  0  0  0  0  0  0  0  0  0  0  0
    0.2071    5.1243   -0.6255 C   0  0  0  0  0  0  0  0  0  0  0  0
   -0.4881    1.6221   -1.4454 C   0  0  0  0  0  0  0  0  0  0  0  0
   -1.8171    1.5602   -1.0512 C   0  0  0  0  0  0  0  0  0  0  0  0
   -2.4426    2.4279   -0.1361 C   0  0  0  0  0  0  0  0  0  0  0  0
   -1.7694    3.6791    0.0297 C   0  0  0  0  0  0  0  0  0  0  0  0
   -3.5868    2.0552    0.6554 C   0  0  0  0  0  0  0  0  0  0  0  0
   -4.1412    3.0235    1.5588 C   0  0  0  0  0  0  0  0  0  0  0  0
   -3.5531    4.3053    1.6235 C   0  0  0  0  0  0  0  0  0  0  0  0
   -2.3958    4.6195    0.8856 C   0  0  0  0  0  0  0  0  0  0  0  0
   -4.1677    0.7442    0.6897 C   0  0  0  0  0  0  0  0  0  0  0  0
   -5.2427    0.4604    1.5455 C   0  0  0  0  0  0  0  0  0  0  0  0
   -5.9151   -0.7666    1.6253 C   0  0  0  0  0  0  0  0  0  0  0  0
   -5.4639   -1.8991    0.8982 C   0  0  0  0  0  0  0  0  0  0  0  0
   -4.2798   -1.6776    0.1450 C   0  0  0  0  0  0  0  0  0  0  0  0
   -3.8023   -0.4064   -0.0234 C   0  0  0  0  0  0  0  0  0  0  0  0
   -6.1415   -3.1220    0.6632 C   0  0  0  0  0  0  0  0  0  0  0  0
   -7.5808   -3.3019    0.9098 C   0  0  0  0  0  0  0  0  0  0  0  0
   -8.3246   -4.2068    0.0528 C   0  0  0  0  0  0  0  0  0  0  0  0
   -7.4686   -4.8790   -0.8601 C   0  0  0  0  0  0  0  0  0  0  0  0
   -6.1174   -4.9148   -0.9323 C   0  0  0  0  0  0  0  0  0  0  0  0
   -5.3759   -4.0423   -0.1696 C   0  0  0  0  0  0  0  0  0  0  0  0
   -5.6792   -5.4596   -2.1432 C   0  0  0  0  0  0  0  0  0  0  0  0
   -4.3691   -5.3883   -2.5354 C   0  0  0  0  0  0  0  0  0  0  0  0
   -3.4988   -4.7289   -1.6964 C   0  0  0  0  0  0  0  0  0  0  0  0
   -4.0394   -3.8775   -0.7007 C   0  0  0  0  0  0  0  0  0  0  0  0
   -3.7793   -5.6894   -3.7508 C   0  0  0  0  0  0  0  0  0  0  0  0
   -2.4309   -5.3098   -3.5958 C   0  0  0  0  0  0  0  0  0  0  0  0
   -1.4797   -5.4040   -4.6362 C   0  0  0  0  0  0  0  0  0  0  0  0
   -1.9609   -6.2281   -5.7787 C   0  0  0  0  0  0  0  0  0  0  0  0
   -3.3784   -6.6630   -5.8797 C   0  0  0  0  0  0  0  0  0  0  0  0
   -4.3637   -6.2342   -4.9263 C   0  0  0  0  0  0  0  0  0  0  0  0
   -3.8820   -7.6021   -6.8595 C   0  0  0  0  0  0  0  0  0  0  0  0
   -7.9742   -9.7046   -9.3123 C   0  0  0  0  0  0  0  0  0  0  0  0
   -7.3384   -8.8597   -8.3238 C   0  0  0  0  0  0  0  0  0  0  0  0
   -5.3189   -7.8815   -7.0495 C   0  0  0  0  0  0  0  0  0  0  0  0
   -0.1058    0.3723   -1.9781 C   0  0  0  0  0  0  0  0  0  0  0  0
   -1.2288   -0.3978   -2.1340 C   0  0  0  0  0  0  0  0  0  0  0  0
   -2.1382    0.3191   -1.4890 C   0  0  0  0  0  0  0  0  0  0  0  0
   -6.7443   -5.6563   -2.9556 C   0  0  0  0  0  0  0  0  0  0  0  0
   -7.7833   -5.2599   -2.1349 C   0  0  0  0  0  0  0  0  0  0  0  0
   -8.1619   -7.9335   -7.6925 C   0  0  0  0  0  0  0  0  0  0  0  0
   -7.6616   -7.1004   -6.6855 C   0  0  0  0  0  0  0  0  0  0  0  0
   -6.2542   -7.0739   -6.3380 C   0  0  0  0  0  0  0  0  0  0  0  0
  -10.1627  -10.5389  -10.3072 C   0  0  0  0  0  0  0  0  0  0  0  0
   -9.3985   -9.7199   -9.4829 C   0  0  0  0  0  0  0  0  0  0  0  0
   -1.0339   -6.6396   -6.8229 C   0  0  0  0  0  0  0  0  0  0  0  0
    0.3355   -6.1282   -6.6862 C   0  0  0  0  0  0  0  0  0  0  0  0
   -0.1403   -4.8245   -4.4181 C   0  0  0  0  0  0  0  0  0  0  0  0
   -7.0198   -0.5289    2.4279 C   0  0  0  0  0  0  0  0  0  0  0  0
   -6.9037    0.7743    2.9560 C   0  0  0  0  0  0  0  0  0  0  0  0
   -5.8069    1.4086    2.3645 C   0  0  0  0  0  0  0  0  0  0  0  0
   -8.1155   -1.3782    2.5665 C   0  0  0  0  0  0  0  0  0  0  0  0
   -8.3758   -2.5212    1.7940 C   0  0  0  0  0  0  0  0  0  0  0  0
   -2.2559   -4.8570   -2.2778 C   0  0  0  0  0  0  0  0  0  0  0  0
    0.3706   -3.7755   -3.4093 C   0  0  0  0  0  0  0  0  0  0  0  0
   -2.9269   -0.6109   -1.0204 C   0  0  0  0  0  0  0  0  0  0  0  0
    2.4275    1.5550   -0.8553 C   0  0  0  0  0  0  0  0  0  0  0  0
    1.0811   -0.3448   -1.9291 C   0  0  0  0  0  0  0  0  0  0  0  0
    2.2255    0.1792   -1.2447 C   0  0  0  0  0  0  0  0  0  0  0  0
   -9.5534   -8.0157   -7.9143 C   0  0  0  0  0  0  0  0  0  0  0  0
  -10.1858   -8.8758   -8.7155 C   0  0  0  0  0  0  0  0  0  0  0  0
   -1.3660   -1.8023   -2.2727 C   0  0  0  0  0  0  0  0  0  0  0  0
   -0.1706   -2.5293   -2.7619 C   0  0  0  0  0  0  0  0  0  0  0  0
    0.9572   -1.7298   -2.3351 C   0  0  0  0  0  0  0  0  0  0  0  0
   -2.5605   -1.8853   -1.4277 C   0  0  0  0  0  0  0  0  0  0  0  0
   -3.5405   -2.5838   -0.6582 C   0  0  0  0  0  0  0  0  0  0  0  0
   -5.2510    2.7039    2.4046 C   0  0  0  0  0  0  0  0  0  0  0  0
   -5.7961   -6.3836   -5.1705 C   0  0  0  0  0  0  0  0  0  0  0  0
   -6.8747   -5.9594   -4.3195 C   0  0  0  0  0  0  0  0  0  0  0  0
  -10.6327   -5.4045   -4.4073 C   0  0  0  0  0  0  0  0  0  0  0  0
  -11.1777   -6.1171   -5.4955 C   0  0  0  0  0  0  0  0  0  0  0  0
  -10.1054   -6.5870   -6.2485 C   0  0  0  0  0  0  0  0  0  0  0  0
  -10.5606   -7.4159   -7.2334 C   0  0  0  0  0  0  0  0  0  0  0  0
   -8.6770   -6.4518   -5.9532 C   0  0  0  0  0  0  0  0  0  0  0  0
   -8.2412   -5.8825   -4.7642 C   0  0  0  0  0  0  0  0  0  0  0  0
   -9.2816   -5.3715   -3.9675 C   0  0  0  0  0  0  0  0  0  0  0  0
   -9.0175   -5.0136   -2.6199 C   0  0  0  0  0  0  0  0  0  0  0  0
  -16.2107   -4.5315    1.7867 C   0  0  0  0  0  0  0  0  0  0  0  0
  -15.2601   -3.9122    2.7387 C   0  0  0  0  0  0  0  0  0  0  0  0
  -13.8553   -4.0809    2.6344 C   0  0  0  0  0  0  0  0  0  0  0  0
  -17.5846   -4.6091    2.3140 C   0  0  0  0  0  0  0  0  0  0  0  0
  -17.6324   -6.9061    0.2879 C   0  0  0  0  0  0  0  0  0  0  0  0
  -18.3671   -6.8495    1.4557 C   0  0  0  0  0  0  0  0  0  0  0  0
  -18.5092   -5.6677    2.1678 C   0  0  0  0  0  0  0  0  0  0  0  0
  -17.9031   -2.4889    3.7374 C   0  0  0  0  0  0  0  0  0  0  0  0
  -16.5603   -2.1792    4.0997 C   0  0  0  0  0  0  0  0  0  0  0  0
  -15.4703   -3.0495    3.9006 C   0  0  0  0  0  0  0  0  0  0  0  0
  -14.4941   -2.8782    4.9515 C   0  0  0  0  0  0  0  0  0  0  0  0
  -13.1615   -3.3418    4.8470 C   0  0  0  0  0  0  0  0  0  0  0  0
  -12.8594   -3.8494    3.5872 C   0  0  0  0  0  0  0  0  0  0  0  0
  -11.5544   -4.1281    3.1473 C   0  0  0  0  0  0  0  0  0  0  0  0
  -10.5150   -4.1919    4.1033 C   0  0  0  0  0  0  0  0  0  0  0  0
  -10.7947   -3.7537    5.4396 C   0  0  0  0  0  0  0  0  0  0  0  0
  -12.1057   -3.2914    5.8069 C   0  0  0  0  0  0  0  0  0  0  0  0
  -12.3129   -2.8329    7.1314 C   0  0  0  0  0  0  0  0  0  0  0  0
  -11.2747   -2.8417    8.0759 C   0  0  0  0  0  0  0  0  0  0  0  0
  -10.0089   -3.3311    7.7298 C   0  0  0  0  0  0  0  0  0  0  0  0
   -9.7582   -3.7934    6.4197 C   0  0  0  0  0  0  0  0  0  0  0  0
   -8.4891   -4.3062    6.0802 C   0  0  0  0  0  0  0  0  0  0  0  0
   -8.2402   -4.7873    4.7862 C   0  0  0  0  0  0  0  0  0  0  0  0
   -9.2465   -4.7358    3.8079 C   0  0  0  0  0  0  0  0  0  0  0  0
    3.2090   -0.7931   -0.8640 C   0  0  0  0  0  0  0  0  0  0  0  0
    4.2716   -0.4421    0.0400 C   0  0  0  0  0  0  0  0  0  0  0  0
    4.3666    0.8599    0.5999 C   0  0  0  0  0  0  0  0  0  0  0  0
    3.4538    1.8084    0.0956 C   0  0  0  0  0  0  0  0  0  0  0  0
    5.2303   -1.4299    0.3181 C   0  0  0  0  0  0  0  0  0  0  0  0
    5.1869   -2.6745   -0.3574 C   0  0  0  0  0  0  0  0  0  0  0  0
    4.1735   -3.0730   -1.2508 C   0  0  0  0  0  0  0  0  0  0  0  0
    3.1347   -2.1270   -1.4016 C   0  0  0  0  0  0  0  0  0  0  0  0
    4.1802   -4.2176   -2.1069 C   0  0  0  0  0  0  0  0  0  0  0  0
    2.9420   -4.4549   -2.8923 C   0  0  0  0  0  0  0  0  0  0  0  0
    1.7306   -3.7106   -2.8378 C   0  0  0  0  0  0  0  0  0  0  0  0
    2.0108   -2.5338   -2.1569 C   0  0  0  0  0  0  0  0  0  0  0  0
    5.4338   -4.9121   -2.4327 C   0  0  0  0  0  0  0  0  0  0  0  0
    5.5149   -5.4976   -3.6924 C   0  0  0  0  0  0  0  0  0  0  0  0
    6.7432   -5.8369   -4.3618 C   0  0  0  0  0  0  0  0  0  0  0  0
    8.0138   -5.9193   -3.7031 C   0  0  0  0  0  0  0  0  0  0  0  0
    7.9612   -5.4905   -2.3557 C   0  0  0  0  0  0  0  0  0  0  0  0
    6.7297   -4.9622   -1.8327 C   0  0  0  0  0  0  0  0  0  0  0  0
   11.4271   -5.2812   -0.5400 C   0  0  0  0  0  0  0  0  0  0  0  0
   10.4232   -5.6695   -1.5134 C   0  0  0  0  0  0  0  0  0  0  0  0
   12.6641   -4.0029    1.2086 C   0  0  0  0  0  0  0  0  0  0  0  0
    6.4091   -1.3414    1.0815 C   0  0  0  0  0  0  0  0  0  0  0  0
    7.0521   -2.5063    0.7963 C   0  0  0  0  0  0  0  0  0  0  0  0
    6.3806   -3.3005   -0.0850 C   0  0  0  0  0  0  0  0  0  0  0  0
    4.3061   -5.5712   -4.3776 C   0  0  0  0  0  0  0  0  0  0  0  0
   11.4609   -4.3244    0.5193 C   0  0  0  0  0  0  0  0  0  0  0  0
   11.6202   -2.1170    2.4077 C   0  0  0  0  0  0  0  0  0  0  0  0
   10.3581   -3.5679    0.9353 C   0  0  0  0  0  0  0  0  0  0  0  0
   10.3919   -2.4539    1.8164 C   0  0  0  0  0  0  0  0  0  0  0  0
    7.1002   -4.3106   -0.7109 C   0  0  0  0  0  0  0  0  0  0  0  0
    5.2781    1.3509    1.5906 C   0  0  0  0  0  0  0  0  0  0  0  0
    7.0922   -0.3837    1.8730 C   0  0  0  0  0  0  0  0  0  0  0  0
    6.4640    0.8343    2.1523 C   0  0  0  0  0  0  0  0  0  0  0  0
    8.3669   -2.7293    1.1226 C   0  0  0  0  0  0  0  0  0  0  0  0
    9.1125   -1.8497    1.8624 C   0  0  0  0  0  0  0  0  0  0  0  0
    8.4504   -0.6645    2.3105 C   0  0  0  0  0  0  0  0  0  0  0  0
    8.4637   -4.5160   -0.4708 C   0  0  0  0  0  0  0  0  0  0  0  0
    9.0447   -5.3013   -1.4577 C   0  0  0  0  0  0  0  0  0  0  0  0
    3.0155   -5.2126   -4.0421 C   0  0  0  0  0  0  0  0  0  0  0  0
    9.0727   -3.7346    0.5121 C   0  0  0  0  0  0  0  0  0  0  0  0
   12.7461   -2.9251    2.1266 C   0  0  0  0  0  0  0  0  0  0  0  0
  -18.3677   -3.7334    3.1331 C   0  0  0  0  0  0  0  0  0  0  0  0
  -19.7151   -5.4331    2.8277 C   0  0  0  0  0  0  0  0  0  0  0  0
  -19.6798   -4.1884    3.4029 C   0  0  0  0  0  0  0  0  0  0  0  0
    2.1296   -5.4655   -5.1227 C   0  0  0  0  0  0  0  0  0  0  0  0
    0.7348   -5.4403   -5.4116 C   0  0  0  0  0  0  0  0  0  0  0  0
  -25.8016  -10.5504  -10.0290 H   0  0  0  0  0  0  0  0  0  0  0  0
  -25.6111  -12.5025  -11.3506 H   0  0  0  0  0  0  0  0  0  0  0  0
  -23.5220  -13.4088  -11.9193 H   0  0  0  0  0  0  0  0  0  0  0  0
  -19.5336  -14.7540  -13.3360 H   0  0  0  0  0  0  0  0  0  0  0  0
  -21.6166  -13.9825  -12.6854 H   0  0  0  0  0  0  0  0  0  0  0  0
  -19.4224   -5.2923   -1.2582 H   0  0  0  0  0  0  0  0  0  0  0  0
  -20.1501   -5.2252   -3.5146 H   0  0  0  0  0  0  0  0  0  0  0  0
  -13.3974  -12.5665  -12.3252 H   0  0  0  0  0  0  0  0  0  0  0  0
  -15.0919  -13.8197  -12.6193 H   0  0  0  0  0  0  0  0  0  0  0  0
  -11.4151  -11.8569  -11.9197 H   0  0  0  0  0  0  0  0  0  0  0  0
  -19.6097   -5.0813   -5.8254 H   0  0  0  0  0  0  0  0  0  0  0  0
  -24.9746   -8.7936   -8.8588 H   0  0  0  0  0  0  0  0  0  0  0  0
  -23.6574   -7.3219   -7.8336 H   0  0  0  0  0  0  0  0  0  0  0  0
  -21.5101   -6.3125   -6.9286 H   0  0  0  0  0  0  0  0  0  0  0  0
  -17.1281  -14.7085  -13.2960 H   0  0  0  0  0  0  0  0  0  0  0  0
    3.2487    4.0805   -1.5459 H   0  0  0  0  0  0  0  0  0  0  0  0
    2.0122    6.0967   -1.1356 H   0  0  0  0  0  0  0  0  0  0  0  0
   -0.2633    5.9958   -0.3739 H   0  0  0  0  0  0  0  0  0  0  0  0
   -3.9451    5.0211    2.2451 H   0  0  0  0  0  0  0  0  0  0  0  0
   -1.9924    5.5457    1.0296 H   0  0  0  0  0  0  0  0  0  0  0  0
   -7.4089  -10.3410   -9.8786 H   0  0  0  0  0  0  0  0  0  0  0  0
   -9.6166  -11.1504  -10.9248 H   0  0  0  0  0  0  0  0  0  0  0  0
   -7.5575    1.2127    3.6076 H   0  0  0  0  0  0  0  0  0  0  0  0
   -8.8521   -1.0815    3.2155 H   0  0  0  0  0  0  0  0  0  0  0  0
   -9.3476   -2.7941    1.8906 H   0  0  0  0  0  0  0  0  0  0  0  0
   -1.3925   -4.6194   -1.8008 H   0  0  0  0  0  0  0  0  0  0  0  0
   -5.6554    3.4013    3.0344 H   0  0  0  0  0  0  0  0  0  0  0  0
  -17.7365   -7.7773   -0.2466 H   0  0  0  0  0  0  0  0  0  0  0  0
  -18.9447   -7.6594    1.7007 H   0  0  0  0  0  0  0  0  0  0  0  0
  -18.5638   -1.7147    4.0924 H   0  0  0  0  0  0  0  0  0  0  0  0
  -16.4298   -1.3078    4.6276 H   0  0  0  0  0  0  0  0  0  0  0  0
  -14.7500   -2.3768    5.8068 H   0  0  0  0  0  0  0  0  0  0  0  0
  -13.2278   -2.5027    7.4390 H   0  0  0  0  0  0  0  0  0  0  0  0
  -11.4483   -2.4976    9.0227 H   0  0  0  0  0  0  0  0  0  0  0  0
   -9.2785   -3.3526    8.4460 H   0  0  0  0  0  0  0  0  0  0  0  0
   -7.7364   -4.3394    6.7731 H   0  0  0  0  0  0  0  0  0  0  0  0
   -7.3228   -5.1809    4.5589 H   0  0  0  0  0  0  0  0  0  0  0  0
   -9.0420   -5.1112    2.8800 H   0  0  0  0  0  0  0  0  0  0  0  0
    3.5254    2.7533    0.4886 H   0  0  0  0  0  0  0  0  0  0  0  0
   12.3446   -5.7227   -0.6523 H   0  0  0  0  0  0  0  0  0  0  0  0
   13.5126   -4.5458    1.0299 H   0  0  0  0  0  0  0  0  0  0  0  0
   11.6963   -1.3137    3.0344 H   0  0  0  0  0  0  0  0  0  0  0  0
    5.0776    2.2840    1.9691 H   0  0  0  0  0  0  0  0  0  0  0  0
    6.9467    1.4495    2.8163 H   0  0  0  0  0  0  0  0  0  0  0  0
    8.9716    0.0119    2.8741 H   0  0  0  0  0  0  0  0  0  0  0  0
   13.6371   -2.7223    2.5826 H   0  0  0  0  0  0  0  0  0  0  0  0
  -20.5205   -6.0632    2.8600 H   0  0  0  0  0  0  0  0  0  0  0  0
  -20.4979   -3.7715    3.9517 H   0  0  0  0  0  0  0  0  0  0  0  0
  -11.8845   -7.8560   -7.5136 C   0  0  0  0  0  0  0  0  0  0  0  0
  -13.0595   -7.3793   -6.7537 C   0  0  0  0  0  0  0  0  0  0  0  0
   -2.8710   -8.2072   -7.6514 C   0  0  0  0  0  0  0  0  0  0  0  0
   -1.5227   -7.6147   -7.8260 C   0  0  0  0  0  0  0  0  0  0  0  0
   -3.2117   -9.4476   -8.2882 C   0  0  0  0  0  0  0  0  0  0  0  0
   -2.3698   -9.8914   -9.2263 C   0  0  0  0  0  0  0  0  0  0  0  0
   -0.7827   -8.1315   -8.9956 C   0  0  0  0  0  0  0  0  0  0  0  0
   -1.2361   -9.2732   -9.7035 C   0  0  0  0  0  0  0  0  0  0  0  0
   -2.8418  -11.0674   -9.7089 C   0  0  0  0  0  0  0  0  0  0  0  0
   -4.2435  -10.4460   -8.3605 C   0  0  0  0  0  0  0  0  0  0  0  0
   -3.9824  -11.5728   -9.2041 C   0  0  0  0  0  0  0  0  0  0  0  0
   -2.1988  -11.6550  -10.7215 C   0  0  0  0  0  0  0  0  0  0  0  0
   -1.1141  -11.1387  -11.2805 C   0  0  0  0  0  0  0  0  0  0  0  0
   -0.5959   -9.9450  -10.8085 C   0  0  0  0  0  0  0  0  0  0  0  0
    0.6093   -9.5927  -11.3882 C   0  0  0  0  0  0  0  0  0  0  0  0
    0.4477   -7.7621   -9.5960 C   0  0  0  0  0  0  0  0  0  0  0  0
    1.0665   -8.4193  -10.7386 C   0  0  0  0  0  0  0  0  0  0  0  0
    1.2326  -10.5288  -12.3251 C   0  0  0  0  0  0  0  0  0  0  0  0
    0.6095  -11.7756  -12.7599 C   0  0  0  0  0  0  0  0  0  0  0  0
   -0.6410  -12.0362  -12.2008 C   0  0  0  0  0  0  0  0  0  0  0  0
   -5.9986   -8.9317   -7.8073 C   0  0  0  0  0  0  0  0  0  0  0  0
   -5.5124  -10.2342   -7.9251 C   0  0  0  0  0  0  0  0  0  0  0  0
   -4.4656  -12.8290   -9.7783 C   0  0  0  0  0  0  0  0  0  0  0  0
   -3.6993  -13.4870  -10.8459 C   0  0  0  0  0  0  0  0  0  0  0  0
   -2.5529  -12.8099  -11.2655 C   0  0  0  0  0  0  0  0  0  0  0  0
   -1.5781  -13.0851  -12.2149 C   0  0  0  0  0  0  0  0  0  0  0  0
   -1.6844  -14.2645  -12.9323 C   0  0  0  0  0  0  0  0  0  0  0  0
   -2.8624  -15.0527  -12.6403 C   0  0  0  0  0  0  0  0  0  0  0  0
   -3.8309  -14.6776  -11.6267 C   0  0  0  0  0  0  0  0  0  0  0  0
   -0.6481  -14.5857  -13.8445 C   0  0  0  0  0  0  0  0  0  0  0  0
    0.6527  -13.9923  -14.0748 C   0  0  0  0  0  0  0  0  0  0  0  0
    1.2558  -12.7731  -13.5670 C   0  0  0  0  0  0  0  0  0  0  0  0
    1.3824   -6.3174   -7.7223 C   0  0  0  0  0  0  0  0  0  0  0  0
    1.3686   -6.9143   -9.0236 C   0  0  0  0  0  0  0  0  0  0  0  0
    2.7524   -6.0432   -7.4346 C   0  0  0  0  0  0  0  0  0  0  0  0
    3.0173   -5.7695   -6.1240 C   0  0  0  0  0  0  0  0  0  0  0  0
    3.9193   -6.2315   -8.2785 C   0  0  0  0  0  0  0  0  0  0  0  0
    3.8109   -6.7458   -9.5540 C   0  0  0  0  0  0  0  0  0  0  0  0
    2.4968   -7.0615   -9.8779 C   0  0  0  0  0  0  0  0  0  0  0  0
    2.3277   -7.9339  -10.9124 C   0  0  0  0  0  0  0  0  0  0  0  0
    3.4311   -8.4459  -11.6077 C   0  0  0  0  0  0  0  0  0  0  0  0
    3.5359   -9.5427  -12.3556 C   0  0  0  0  0  0  0  0  0  0  0  0
    2.5714  -10.4269  -12.6960 C   0  0  0  0  0  0  0  0  0  0  0  0
    3.2987  -11.3973  -13.3216 C   0  0  0  0  0  0  0  0  0  0  0  0
    2.6577  -12.5350  -13.8219 C   0  0  0  0  0  0  0  0  0  0  0  0
    4.8408   -9.9488  -12.5507 C   0  0  0  0  0  0  0  0  0  0  0  0
    4.6885  -11.1419  -13.2626 C   0  0  0  0  0  0  0  0  0  0  0  0
    4.9399   -7.2816  -10.2789 C   0  0  0  0  0  0  0  0  0  0  0  0
    4.7531   -8.1847  -11.3139 C   0  0  0  0  0  0  0  0  0  0  0  0
    5.2430   -6.1746   -7.7910 C   0  0  0  0  0  0  0  0  0  0  0  0
    6.3674   -6.5341   -8.5618 C   0  0  0  0  0  0  0  0  0  0  0  0
    6.2495   -7.2139   -9.8243 C   0  0  0  0  0  0  0  0  0  0  0  0
    7.3207   -7.9842  -10.4605 C   0  0  0  0  0  0  0  0  0  0  0  0
    7.1307   -9.0892  -11.4383 C   0  0  0  0  0  0  0  0  0  0  0  0
    5.7284   -9.0952  -11.8465 C   0  0  0  0  0  0  0  0  0  0  0  0
    4.2948   -5.8032   -5.6782 C   0  0  0  0  0  0  0  0  0  0  0  0
    5.4262   -5.9679   -6.4259 C   0  0  0  0  0  0  0  0  0  0  0  0
    5.5743  -12.0720  -13.8073 C   0  0  0  0  0  0  0  0  0  0  0  0
    4.9302  -13.1397  -14.5769 C   0  0  0  0  0  0  0  0  0  0  0  0
    3.5100  -13.4076  -14.5297 C   0  0  0  0  0  0  0  0  0  0  0  0
    6.9980  -12.0161  -13.6010 C   0  0  0  0  0  0  0  0  0  0  0  0
    7.9612  -11.2684  -12.7833 C   0  0  0  0  0  0  0  0  0  0  0  0
    8.1597  -10.1131  -11.8366 C   0  0  0  0  0  0  0  0  0  0  0  0
    1.4899  -14.7852  -14.9076 C   0  0  0  0  0  0  0  0  0  0  0  0
    2.8550  -14.5244  -15.1060 C   0  0  0  0  0  0  0  0  0  0  0  0
    7.6718  -13.0505  -14.3202 C   0  0  0  0  0  0  0  0  0  0  0  0
    5.7468  -13.9646  -15.3773 C   0  0  0  0  0  0  0  0  0  0  0  0
    7.1213  -13.9347  -15.2494 C   0  0  0  0  0  0  0  0  0  0  0  0
    8.9682  -13.1739  -13.9225 C   0  0  0  0  0  0  0  0  0  0  0  0
    9.0679  -12.1257  -13.0386 C   0  0  0  0  0  0  0  0  0  0  0  0
   10.2796  -12.0770  -12.4012 C   0  0  0  0  0  0  0  0  0  0  0  0
   10.5108  -11.1259  -11.5000 C   0  0  0  0  0  0  0  0  0  0  0  0
    9.5445  -10.1253  -11.2428 C   0  0  0  0  0  0  0  0  0  0  0  0
   10.2526   -9.3137  -10.3203 C   0  0  0  0  0  0  0  0  0  0  0  0
    8.5247   -7.6163   -9.8336 C   0  0  0  0  0  0  0  0  0  0  0  0
    9.7449   -8.1920   -9.8428 C   0  0  0  0  0  0  0  0  0  0  0  0
   11.4797   -9.5222   -9.5557 C   0  0  0  0  0  0  0  0  0  0  0  0
   12.2890  -10.6112   -9.9203 C   0  0  0  0  0  0  0  0  0  0  0  0
   11.7884  -11.4105  -10.9659 C   0  0  0  0  0  0  0  0  0  0  0  0
    6.6621   -5.9980   -5.7592 C   0  0  0  0  0  0  0  0  0  0  0  0
    7.7959   -6.2165   -6.5200 C   0  0  0  0  0  0  0  0  0  0  0  0
    7.6050   -6.4319   -7.9183 C   0  0  0  0  0  0  0  0  0  0  0  0
    8.6595   -6.8545   -8.6638 C   0  0  0  0  0  0  0  0  0  0  0  0
    9.0458   -6.4252   -5.8610 C   0  0  0  0  0  0  0  0  0  0  0  0
    9.1885   -6.3304   -4.4410 C   0  0  0  0  0  0  0  0  0  0  0  0
   10.1094   -6.8993   -6.6695 C   0  0  0  0  0  0  0  0  0  0  0  0
    9.8533   -7.0044   -8.0263 C   0  0  0  0  0  0  0  0  0  0  0  0
   10.5240   -7.8267   -8.8175 C   0  0  0  0  0  0  0  0  0  0  0  0
   11.5430   -8.6257   -8.4422 C   0  0  0  0  0  0  0  0  0  0  0  0
   11.2733   -7.5456   -6.1876 C   0  0  0  0  0  0  0  0  0  0  0  0
   12.0464   -8.3936   -7.1046 C   0  0  0  0  0  0  0  0  0  0  0  0
   10.4812   -6.6982   -3.9201 C   0  0  0  0  0  0  0  0  0  0  0  0
   11.4428   -7.3597   -4.7903 C   0  0  0  0  0  0  0  0  0  0  0  0
   -6.1480  -11.0418   -7.9141 H   0  0  0  0  0  0  0  0  0  0  0  0
   -5.3426  -13.2348   -9.4503 H   0  0  0  0  0  0  0  0  0  0  0  0
   -3.0187  -15.9204  -13.1583 H   0  0  0  0  0  0  0  0  0  0  0  0
   -4.6365  -15.2848  -11.4629 H   0  0  0  0  0  0  0  0  0  0  0  0
   -0.8776  -15.4231  -14.3886 H   0  0  0  0  0  0  0  0  0  0  0  0
    1.1271  -15.6236  -15.3740 H   0  0  0  0  0  0  0  0  0  0  0  0
    3.3580  -15.2114  -15.6664 H   0  0  0  0  0  0  0  0  0  0  0  0
    5.3749  -14.6270  -16.0543 H   0  0  0  0  0  0  0  0  0  0  0  0
    7.6943  -14.5839  -15.7947 H   0  0  0  0  0  0  0  0  0  0  0  0
   13.1749  -10.8113   -9.4532 H   0  0  0  0  0  0  0  0  0  0  0  0
   12.8541   -8.9139   -6.7623 H   0  0  0  0  0  0  0  0  0  0  0  0
   12.3102   -7.7374   -4.3974 H   0  0  0  0  0  0  0  0  0  0  0  0
   10.9389   -6.4462   -2.5953 C   0  0  0  0  0  0  0  0  0  0  0  0
   11.8639   -6.8503   -2.4108 H   0  0  0  0  0  0  0  0  0  0  0  0
   11.3425  -12.9594  -12.5295 C   0  0  0  0  0  0  0  0  0  0  0  0
   12.3120  -12.5404  -11.6132 C   0  0  0  0  0  0  0  0  0  0  0  0
   11.2164  -14.0179  -13.4501 C   0  0  0  0  0  0  0  0  0  0  0  0
    9.9994  -14.1271  -14.1727 C   0  0  0  0  0  0  0  0  0  0  0  0
   13.2158  -12.9819  -11.4337 H   0  0  0  0  0  0  0  0  0  0  0  0
   11.9713  -14.6942  -13.5792 H   0  0  0  0  0  0  0  0  0  0  0  0
    9.8642  -14.9011  -14.8248 H   0  0  0  0  0  0  0  0  0  0  0  0
  1  2  1  0  0  0  0
  2  3  1  0  0  0  0
  3  4  2  0  0  0  0
  4  5  1  0  0  0  0
  5  6  2  0  0  0  0
  1  6  1  0  0  0  0
  7  8  1  0  0  0  0
  8  9  1  0  0  0  0
  9 10  1  0  0  0  0
  1 10  2  0  0  0  0
  2  7  2  0  0  0  0
 11 12  1  0  0  0  0
 12 13  1  0  0  0  0
 13 14  2  0  0  0  0
  9 11  2  0  0  0  0
 10 14  1  0  0  0  0
 16 17  1  0  0  0  0
 17 18  2  0  0  0  0
 18 19  1  0  0  0  0
 19 20  1  0  0  0  0
 15 16  1  0  0  0  0
 15 20  2  0  0  0  0
 11 15  1  0  0  0  0
 22 23  1  0  0  0  0
 21 22  1  0  0  0  0
 18 21  1  0  0  0  0
 24 25  1  0  0  0  0
 26 27  1  0  0  0  0
 27 28  1  0  0  0  0
 28 29  2  0  0  0  0
 29 30  1  0  0  0  0
 32 33  1  0  0  0  0
 33 34  1  0  0  0  0
 34 35  2  0  0  0  0
 35 36  1  0  0  0  0
 31 32  1  0  0  0  0
 31 36  2  0  0  0  0
 29 31  1  0  0  0  0
 37 38  1  0  0  0  0
 38 39  1  0  0  0  0
  7 37  1  0  0  0  0
  8 39  2  0  0  0  0
 40 41  1  0  0  0  0
 41 42  2  0  0  0  0
 35 40  1  0  0  0  0
 36 42  1  0  0  0  0
 43 44  1  0  0  0  0
 44 45  1  0  0  0  0
 33 43  2  0  0  0  0
 34 45  1  0  0  0  0
 46 47  1  0  0  0  0
 47 48  2  0  0  0  0
 48 49  1  0  0  0  0
 27 49  2  0  0  0  0
 28 46  1  0  0  0  0
 16 51  2  0  0  0  0
 17 50  1  0  0  0  0
 50 52  2  0  0  0  0
 22 53  2  0  0  0  0
 53 52  1  0  0  0  0
 26 54  1  0  0  0  0
 49 55  1  0  0  0  0
 54 56  1  0  0  0  0
 56 57  1  0  0  0  0
 57 55  2  0  0  0  0
 46 58  2  0  0  0  0
 58 59  1  0  0  0  0
 59 32  2  0  0  0  0
 20 60  1  0  0  0  0
 60 39  1  0  0  0  0
  3 61  1  0  0  0  0
 37 62  2  0  0  0  0
 62 63  1  0  0  0  0
 63 61  2  0  0  0  0
 64 65  1  0  0  0  0
 66 67  1  0  0  0  0
 67 68  2  0  0  0  0
 62 68  1  0  0  0  0
 38 66  2  0  0  0  0
 40 64  2  0  0  0  0
 65 45  2  0  0  0  0
 60 69  2  0  0  0  0
 70 25  1  0  0  0  0
 51 71  1  0  0  0  0
 12 71  2  0  0  0  0
 70 69  1  0  0  0  0
 24 54  2  0  0  0  0
 30 72  1  0  0  0  0
 72 73  2  0  0  0  0
 42 72  1  0  0  0  0
 69 74  1  0  0  0  0
 66 74  1  0  0  0  0
 74 56  2  0  0  0  0
 57 67  1  0  0  0  0
 19 70  2  0  0  0  0
 75 76  1  0  0  0  0
 76 77  2  0  0  0  0
 77 78  1  0  0  0  0
 78 79  2  0  0  0  0
 79 80  1  0  0  0  0
 75 80  2  0  0  0  0
 81 82  1  0  0  0  0
 82 83  2  0  0  0  0
 83 84  1  0  0  0  0
 75 84  1  0  0  0  0
 76 81  1  0  0  0  0
 85 86  1  0  0  0  0
 86 87  2  0  0  0  0
 87 88  1  0  0  0  0
 83 85  1  0  0  0  0
 84 88  2  0  0  0  0
 90 91  2  0  0  0  0
 91 92  1  0  0  0  0
 92 93  1  0  0  0  0
 93 94  2  0  0  0  0
 89 90  1  0  0  0  0
 89 94  1  0  0  0  0
 85 89  2  0  0  0  0
 96 97  2  0  0  0  0
 97 98  1  0  0  0  0
 98 99  2  0  0  0  0
 99100  1  0  0  0  0
 95 96  1  0  0  0  0
 95100  1  0  0  0  0
 92 95  2  0  0  0  0
102101  2  0  0  0  0
102103  1  0  0  0  0
103104  1  0  0  0  0
 99101  1  0  0  0  0
100104  2  0  0  0  0
106107  2  0  0  0  0
107108  1  0  0  0  0
108109  2  0  0  0  0
109110  1  0  0  0  0
105106  1  0  0  0  0
105110  2  0  0  0  0
102105  1  0  0  0  0
112113  2  0  0  0  0
111114  2  0  0  0  0
109111  1  0  0  0  0
115116  1  0  0  0  0
116117  1  0  0  0  0
 81115  2  0  0  0  0
 82117  1  0  0  0  0
118119  1  0  0  0  0
101118  1  0  0  0  0
120121  2  0  0  0  0
121122  1  0  0  0  0
113120  1  0  0  0  0
114122  1  0  0  0  0
123124  2  0  0  0  0
112124  1  0  0  0  0
125126  2  0  0  0  0
107127  1  0  0  0  0
108125  1  0  0  0  0
128129  2  0  0  0  0
129130  1  0  0  0  0
 90130  1  0  0  0  0
 91128  1  0  0  0  0
128131  1  0  0  0  0
 96132  1  0  0  0  0
132131  2  0  0  0  0
106133  1  0  0  0  0
127134  2  0  0  0  0
 94135  1  0  0  0  0
135117  2  0  0  0  0
 77136  1  0  0  0  0
115137  1  0  0  0  0
137138  2  0  0  0  0
138136  1  0  0  0  0
119 98  1  0  0  0  0
139140  1  0  0  0  0
141142  1  0  0  0  0
142143  2  0  0  0  0
137143  1  0  0  0  0
116141  2  0  0  0  0
120139  1  0  0  0  0
140124  1  0  0  0  0
135144  1  0  0  0  0
145104  1  0  0  0  0
130146  2  0  0  0  0
 86146  1  0  0  0  0
145144  2  0  0  0  0
103133  2  0  0  0  0
110147  1  0  0  0  0
147148  1  0  0  0  0
118148  2  0  0  0  0
122147  2  0  0  0  0
 93145  1  0  0  0  0
 41149  1  0  0  0  0
 73150  1  0  0  0  0
150151  2  0  0  0  0
152151  1  0  0  0  0
139152  2  0  0  0  0
121153  1  0  0  0  0
151153  1  0  0  0  0
149150  1  0  0  0  0
153154  2  0  0  0  0
148154  1  0  0  0  0
154155  1  0  0  0  0
155149  2  0  0  0  0
155156  1  0  0  0  0
 64156  1  0  0  0  0
156119  2  0  0  0  0
 23140  2  0  0  0  0
 53123  1  0  0  0  0
 97 65  1  0  0  0  0
 59157  1  0  0  0  0
157158  1  0  0  0  0
 43159  1  0  0  0  0
159158  1  0  0  0  0
157160  2  0  0  0  0
 58161  1  0  0  0  0
161162  2  0  0  0  0
162163  1  0  0  0  0
160163  1  0  0  0  0
164165  2  0  0  0  0
165166  1  0  0  0  0
166158  2  0  0  0  0
166167  1  0  0  0  0
167168  2  0  0  0  0
168169  1  0  0  0  0
169159  2  0  0  0  0
169170  1  0  0  0  0
170171  1  0  0  0  0
171172  2  0  0  0  0
168173  1  0  0  0  0
172173  1  0  0  0  0
173174  2  0  0  0  0
170 44  2  0  0  0  0
174175  1  0  0  0  0
175176  2  0  0  0  0
172177  1  0  0  0  0
176177  1  0  0  0  0
177178  2  0  0  0  0
178179  1  0  0  0  0
171180  1  0  0  0  0
180179  2  0  0  0  0
181182  2  0  0  0  0
182183  1  0  0  0  0
183184  1  0  0  0  0
185186  1  0  0  0  0
186187  1  0  0  0  0
187188  2  0  0  0  0
181188  1  0  0  0  0
182185  1  0  0  0  0
189190  2  0  0  0  0
190191  1  0  0  0  0
191192  2  0  0  0  0
187189  1  0  0  0  0
188192  1  0  0  0  0
194195  2  0  0  0  0
195196  1  0  0  0  0
196197  2  0  0  0  0
197198  1  0  0  0  0
193194  1  0  0  0  0
193198  2  0  0  0  0
189193  1  0  0  0  0
199200  1  0  0  0  0
202203  1  0  0  0  0
203204  1  0  0  0  0
185202  2  0  0  0  0
186204  2  0  0  0  0
194205  1  0  0  0  0
201206  1  0  0  0  0
206208  1  0  0  0  0
208209  1  0  0  0  0
209207  2  0  0  0  0
198210  1  0  0  0  0
210204  1  0  0  0  0
183211  2  0  0  0  0
202212  1  0  0  0  0
212213  2  0  0  0  0
213211  1  0  0  0  0
214215  1  0  0  0  0
215216  2  0  0  0  0
212216  1  0  0  0  0
203214  2  0  0  0  0
210217  2  0  0  0  0
218200  2  0  0  0  0
205219  2  0  0  0  0
190219  1  0  0  0  0
218217  1  0  0  0  0
199206  2  0  0  0  0
217220  1  0  0  0  0
214220  1  0  0  0  0
220208  2  0  0  0  0
209215  1  0  0  0  0
197218  1  0  0  0  0
181138  1  0  0  0  0
184136  2  0  0  0  0
143192  1  0  0  0  0
191134  1  0  0  0  0
207221  1  0  0  0  0
160222  1  0  0  0  0
222164  1  0  0  0  0
163223  2  0  0  0  0
223224  1  0  0  0  0
222224  2  0  0  0  0
221201  2  0  0  0  0
141144  1  0  0  0  0
 21 25  2  0  0  0  0
142134  1  0  0  0  0
 30 26  2  0  0  0  0
219225  1  0  0  0  0
225226  2  0  0  0  0
226127  1  0  0  0  0
126226  1  0  0  0  0
  4227  1  0  0  0  0
  5228  1  0  0  0  0
  6229  1  0  0  0  0
 13230  1  0  0  0  0
 14231  1  0  0  0  0
 47232  1  0  0  0  0
 48233  1  0  0  0  0
 50234  1  0  0  0  0
 51235  1  0  0  0  0
 52236  1  0  0  0  0
 55237  1  0  0  0  0
 61238  1  0  0  0  0
 63239  1  0  0  0  0
 68240  1  0  0  0  0
 71241  1  0  0  0  0
 78242  1  0  0  0  0
 79243  1  0  0  0  0
 80244  1  0  0  0  0
 87245  1  0  0  0  0
 88246  1  0  0  0  0
112247  1  0  0  0  0
123248  1  0  0  0  0
129249  1  0  0  0  0
131250  1  0  0  0  0
132251  1  0  0  0  0
133252  1  0  0  0  0
146253  1  0  0  0  0
161254  1  0  0  0  0
162255  1  0  0  0  0
164256  1  0  0  0  0
165257  1  0  0  0  0
167258  1  0  0  0  0
174259  1  0  0  0  0
175260  1  0  0  0  0
176261  1  0  0  0  0
178262  1  0  0  0  0
179263  1  0  0  0  0
180264  1  0  0  0  0
184265  1  0  0  0  0
199266  1  0  0  0  0
201267  1  0  0  0  0
207268  1  0  0  0  0
211269  1  0  0  0  0
213270  1  0  0  0  0
216271  1  0  0  0  0
221272  1  0  0  0  0
223273  1  0  0  0  0
224274  1  0  0  0  0
152275  1  0  0  0  0
275 23  1  0  0  0  0
 73276  1  0  0  0  0
275276  2  0  0  0  0
276 24  1  0  0  0  0
111277  1  0  0  0  0
125278  1  0  0  0  0
277278  2  0  0  0  0
277279  1  0  0  0  0
279280  2  0  0  0  0
278281  1  0  0  0  0
281282  2  0  0  0  0
280282  1  0  0  0  0
280283  1  0  0  0  0
279284  1  0  0  0  0
284285  2  0  0  0  0
283285  1  0  0  0  0
283286  2  0  0  0  0
286287  1  0  0  0  0
287288  2  0  0  0  0
282288  1  0  0  0  0
288289  1  0  0  0  0
281290  1  0  0  0  0
290291  2  0  0  0  0
291289  1  0  0  0  0
289292  2  0  0  0  0
292293  1  0  0  0  0
293294  2  0  0  0  0
294287  1  0  0  0  0
113295  1  0  0  0  0
114295  1  0  0  0  0
295296  2  0  0  0  0
296284  1  0  0  0  0
285297  1  0  0  0  0
297298  2  0  0  0  0
286299  1  0  0  0  0
299298  1  0  0  0  0
299300  2  0  0  0  0
300294  1  0  0  0  0
300301  1  0  0  0  0
301302  1  0  0  0  0
298303  1  0  0  0  0
303302  2  0  0  0  0
301304  2  0  0  0  0
304305  1  0  0  0  0
293306  1  0  0  0  0
306305  2  0  0  0  0
126307  1  0  0  0  0
307308  2  0  0  0  0
308290  1  0  0  0  0
307309  1  0  0  0  0
225310  1  0  0  0  0
310309  2  0  0  0  0
309311  1  0  0  0  0
311312  2  0  0  0  0
312313  1  0  0  0  0
308313  1  0  0  0  0
313314  2  0  0  0  0
314291  1  0  0  0  0
314315  1  0  0  0  0
315316  1  0  0  0  0
292317  1  0  0  0  0
316317  2  0  0  0  0
317318  1  0  0  0  0
318319  2  0  0  0  0
319306  1  0  0  0  0
316320  1  0  0  0  0
320321  2  0  0  0  0
321318  1  0  0  0  0
312322  1  0  0  0  0
322323  1  0  0  0  0
323315  2  0  0  0  0
311324  1  0  0  0  0
324325  2  0  0  0  0
325326  1  0  0  0  0
326322  2  0  0  0  0
326327  1  0  0  0  0
327328  1  0  0  0  0
323329  1  0  0  0  0
328329  2  0  0  0  0
310330  1  0  0  0  0
330331  2  0  0  0  0
331324  1  0  0  0  0
329320  1  0  0  0  0
321332  1  0  0  0  0
332333  1  0  0  0  0
319334  1  0  0  0  0
334333  2  0  0  0  0
332335  2  0  0  0  0
335336  1  0  0  0  0
336337  2  0  0  0  0
328337  1  0  0  0  0
305338  1  0  0  0  0
338339  2  0  0  0  0
339334  1  0  0  0  0
335340  1  0  0  0  0
333341  1  0  0  0  0
341342  2  0  0  0  0
342340  1  0  0  0  0
340343  2  0  0  0  0
343344  1  0  0  0  0
336344  1  0  0  0  0
344345  2  0  0  0  0
345346  1  0  0  0  0
337347  1  0  0  0  0
347346  2  0  0  0  0
347348  1  0  0  0  0
327349  2  0  0  0  0
349350  1  0  0  0  0
350348  1  0  0  0  0
348351  2  0  0  0  0
351352  1  0  0  0  0
346353  1  0  0  0  0
353352  2  0  0  0  0
205330  1  0  0  0  0
331354  1  0  0  0  0
195354  1  0  0  0  0
354355  2  0  0  0  0
325356  1  0  0  0  0
356355  1  0  0  0  0
356357  2  0  0  0  0
357349  1  0  0  0  0
355358  1  0  0  0  0
358359  2  0  0  0  0
196359  1  0  0  0  0
358360  1  0  0  0  0
360361  2  0  0  0  0
357361  1  0  0  0  0
361362  1  0  0  0  0
350362  2  0  0  0  0
362363  1  0  0  0  0
363351  1  0  0  0  0
360364  1  0  0  0  0
364365  1  0  0  0  0
365363  2  0  0  0  0
359366  1  0  0  0  0
366367  1  0  0  0  0
367364  2  0  0  0  0
296368  1  0  0  0  0
297369  1  0  0  0  0
302370  1  0  0  0  0
303371  1  0  0  0  0
304372  1  0  0  0  0
338373  1  0  0  0  0
339374  1  0  0  0  0
341375  1  0  0  0  0
342376  1  0  0  0  0
352377  1  0  0  0  0
365378  1  0  0  0  0
367379  1  0  0  0  0
366380  2  0  0  0  0
200380  1  0  0  0  0
380381  1  0  0  0  0
345382  1  0  0  0  0
353383  1  0  0  0  0
382383  2  0  0  0  0
382384  1  0  0  0  0
343385  1  0  0  0  0
385384  2  0  0  0  0
383386  1  0  0  0  0
384387  1  0  0  0  0
385388  1  0  0  0  0
M  END
