
  Mrv2101 10312211453D          

103116  0  0  0  0            999 V2000
    7.7754    3.8564   -0.6445 C   0  0  0  0  0  0  0  0  0  0  0  0
    6.4808    4.1014   -0.1114 C   0  0  0  0  0  0  0  0  0  0  0  0
    6.1709    5.3180    0.5505 C   0  0  0  0  0  0  0  0  0  0  0  0
    7.1792    6.3014    0.7119 C   0  0  0  0  0  0  0  0  0  0  0  0
    8.4943    6.0681    0.2100 C   0  0  0  0  0  0  0  0  0  0  0  0
    8.7579    4.8829   -0.5228 C   0  0  0  0  0  0  0  0  0  0  0  0
    6.8491    7.5337    1.3349 C   0  0  0  0  0  0  0  0  0  0  0  0
    4.8551    5.5462    1.0414 C   0  0  0  0  0  0  0  0  0  0  0  0
    4.5207    6.7734    1.6853 C   0  0  0  0  0  0  0  0  0  0  0  0
    5.5177    7.7783    1.8181 C   0  0  0  0  0  0  0  0  0  0  0  0
    3.1951    6.9962    2.1698 C   0  0  0  0  0  0  0  0  0  0  0  0
    2.8714    8.2258    2.8282 C   0  0  0  0  0  0  0  0  0  0  0  0
    3.8779    9.2366    3.0015 C   0  0  0  0  0  0  0  0  0  0  0  0
    5.1690    9.0320    2.4098 C   0  0  0  0  0  0  0  0  0  0  0  0
    5.4800    3.1089   -0.2532 C   0  0  0  0  0  0  0  0  0  0  0  0
    5.7851    1.9336   -0.8719 O   0  0  0  0  0  0  0  0  0  0  0  0
    7.0110    1.6365   -1.3610 C   0  0  0  0  0  0  0  0  0  0  0  0
    8.0302    2.5883   -1.2428 C   0  0  0  0  0  0  0  0  0  0  0  0
    3.8665    4.5366    0.8732 C   0  0  0  0  0  0  0  0  0  0  0  0
    4.1746    3.3145    0.2288 C   0  0  0  0  0  0  0  0  0  0  0  0
    2.5518    4.7405    1.3435 C   0  0  0  0  0  0  0  0  0  0  0  0
    1.5663    3.7363    1.1742 C   0  0  0  0  0  0  0  0  0  0  0  0
    1.8552    2.5030    0.5397 C   0  0  0  0  0  0  0  0  0  0  0  0
    3.1776    2.3244    0.0709 C   0  0  0  0  0  0  0  0  0  0  0  0
    0.8432    1.5323    0.4041 C   0  0  0  0  0  0  0  0  0  0  0  0
    0.9335    0.3386   -0.2172 C   0  0  0  0  0  0  0  0  0  0  0  0
    7.1966    0.5253   -1.9057 O   0  0  0  0  0  0  0  0  0  0  0  0
    1.5635    8.4828    3.3410 C   0  0  0  0  0  0  0  0  0  0  0  0
    1.2434    9.6333    4.0693 C   0  0  0  0  0  0  0  0  0  0  0  0
    2.2334   10.5886    4.2785 C   0  0  0  0  0  0  0  0  0  0  0  0
    3.5339   10.3898    3.7874 C   0  0  0  0  0  0  0  0  0  0  0  0
    4.3927   11.3852    4.1669 O   0  0  0  0  0  0  0  0  0  0  0  0
   10.0151    4.7783   -1.1450 C   0  0  0  0  0  0  0  0  0  0  0  0
   11.1572    5.5332   -0.8117 C   0  0  0  0  0  0  0  0  0  0  0  0
   10.8660    6.7565   -0.1012 C   0  0  0  0  0  0  0  0  0  0  0  0
    9.5333    7.0265    0.3919 C   0  0  0  0  0  0  0  0  0  0  0  0
    2.2445    5.9539    1.9786 C   0  0  0  0  0  0  0  0  0  0  0  0
    6.1498   10.0499    2.3320 C   0  0  0  0  0  0  0  0  0  0  0  0
    7.4468    9.8085    1.8827 C   0  0  0  0  0  0  0  0  0  0  0  0
    7.8584    8.5333    1.4372 C   0  0  0  0  0  0  0  0  0  0  0  0
    9.2066    8.2560    1.0498 C   0  0  0  0  0  0  0  0  0  0  0  0
   10.2595    9.1772    1.2868 C   0  0  0  0  0  0  0  0  0  0  0  0
   11.8262    7.7883    0.0913 C   0  0  0  0  0  0  0  0  0  0  0  0
   11.5455    8.9557    0.8007 C   0  0  0  0  0  0  0  0  0  0  0  0
   12.4533    5.0596   -1.2366 C   0  0  0  0  0  0  0  0  0  0  0  0
   12.8594    3.9840   -1.9752 C   0  0  0  0  0  0  0  0  0  0  0  0
   12.1191    2.7551   -2.2664 C   0  0  1  0  0  0  0  0  0  0  0  0
   13.5172    5.6855   -0.7598 O   0  0  0  0  0  0  0  0  0  0  0  0
   14.1340    3.9628   -2.4581 O   0  0  0  0  0  0  0  0  0  0  0  0
   14.2385    4.4201   -3.7613 C   0  0  0  0  0  0  0  0  0  0  0  0
   14.6013    5.7603   -4.0410 C   0  0  0  0  0  0  0  0  0  0  0  0
   14.6425    6.2252   -5.3720 C   0  0  0  0  0  0  0  0  0  0  0  0
   14.3510    5.3583   -6.4501 C   0  0  0  0  0  0  0  0  0  0  0  0
   14.0446    4.0022   -6.1792 C   0  0  0  0  0  0  0  0  0  0  0  0
   14.0220    3.5417   -4.8472 C   0  0  0  0  0  0  0  0  0  0  0  0
   11.3681    2.8627   -3.4709 O   0  0  0  0  0  0  0  0  0  0  0  0
   14.8884    6.6453   -3.0400 O   0  0  0  0  0  0  0  0  0  0  0  0
   16.2383    6.5540   -2.5519 C   0  0  0  0  0  0  0  0  0  0  0  0
   -0.1596   -0.6088   -0.3084 C   0  0  1  0  0  0  0  0  0  0  0  0
   -0.1591   -1.4371    0.8482 O   0  0  0  0  0  0  0  0  0  0  0  0
   -0.0196    9.8264    4.5630 O   0  0  0  0  0  0  0  0  0  0  0  0
    5.0678   11.1090    5.4060 C   0  0  0  0  0  0  0  0  0  0  0  0
   -0.1846    9.3288    5.9051 C   0  0  0  0  0  0  0  0  0  0  0  0
   14.3510    5.7898   -7.7720 C   0  0  0  0  0  0  0  0  0  0  0  0
   14.1398    4.9457   -8.7935 C   0  0  0  0  0  0  0  0  0  0  0  0
   13.8999    3.5297   -8.5686 C   0  0  2  0  0  0  0  0  0  0  0  0
   13.7199    3.1144   -7.1873 O   0  0  0  0  0  0  0  0  0  0  0  0
    8.9500    2.3256   -1.5911 H   0  0  0  0  0  0  0  0  0  0  0  0
    0.6178    3.9126    1.5218 H   0  0  0  0  0  0  0  0  0  0  0  0
    3.4312    1.4579   -0.3998 H   0  0  0  0  0  0  0  0  0  0  0  0
   -0.0397    1.7450    0.8116 H   0  0  0  0  0  0  0  0  0  0  0  0
    1.7859    0.0533   -0.6336 H   0  0  0  0  0  0  0  0  0  0  0  0
    0.7872    7.8437    3.2149 H   0  0  0  0  0  0  0  0  0  0  0  0
    2.0048   11.4297    4.8124 H   0  0  0  0  0  0  0  0  0  0  0  0
   10.0694    4.1438   -1.9151 H   0  0  0  0  0  0  0  0  0  0  0  0
    1.2865    6.0483    2.2967 H   0  0  0  0  0  0  0  0  0  0  0  0
    5.9572   11.0161    2.5719 H   0  0  0  0  0  0  0  0  0  0  0  0
    8.0713   10.6145    1.8670 H   0  0  0  0  0  0  0  0  0  0  0  0
   10.1302   10.0405    1.8132 H   0  0  0  0  0  0  0  0  0  0  0  0
   12.7592    7.7603   -0.2952 H   0  0  0  0  0  0  0  0  0  0  0  0
   12.2789    9.6548    0.9535 H   0  0  0  0  0  0  0  0  0  0  0  0
   12.8083    1.9157   -2.3856 H   0  0  0  0  0  0  0  0  0  0  0  0
   11.4764    2.4727   -1.4335 H   0  0  0  0  0  0  0  0  0  0  0  0
   13.6539    6.4345   -1.3645 H   0  0  0  0  0  0  0  0  0  0  0  0
   14.8809    7.2064   -5.5456 H   0  0  0  0  0  0  0  0  0  0  0  0
   13.8267    2.5545   -4.6663 H   0  0  0  0  0  0  0  0  0  0  0  0
   10.8913    2.0105   -3.5450 H   0  0  0  0  0  0  0  0  0  0  0  0
   16.3531    7.2791   -1.7453 H   0  0  0  0  0  0  0  0  0  0  0  0
   16.4627    5.5614   -2.1504 H   0  0  0  0  0  0  0  0  0  0  0  0
   16.9563    6.8018   -3.3358 H   0  0  0  0  0  0  0  0  0  0  0  0
   -1.1241   -0.1049   -0.4007 H   0  0  0  0  0  0  0  0  0  0  0  0
   -0.0247   -1.2399   -1.1895 H   0  0  0  0  0  0  0  0  0  0  0  0
   -0.8681   -2.0966    0.6968 H   0  0  0  0  0  0  0  0  0  0  0  0
    5.7836   11.9113    5.5828 H   0  0  0  0  0  0  0  0  0  0  0  0
    4.3643   11.0843    6.2415 H   0  0  0  0  0  0  0  0  0  0  0  0
    5.6173   10.1658    5.3631 H   0  0  0  0  0  0  0  0  0  0  0  0
   -1.2120    9.5203    6.2153 H   0  0  0  0  0  0  0  0  0  0  0  0
   -0.0113    8.2509    5.9569 H   0  0  0  0  0  0  0  0  0  0  0  0
    0.4791    9.8376    6.6093 H   0  0  0  0  0  0  0  0  0  0  0  0
   14.5227    6.7478   -7.9781 H   0  0  0  0  0  0  0  0  0  0  0  0
   14.1560    5.2884   -9.7267 H   0  0  0  0  0  0  0  0  0  0  0  0
   14.7393    2.9709   -8.9899 H   0  0  0  0  0  0  0  0  0  0  0  0
   13.0002    3.2417   -9.1194 H   0  0  0  0  0  0  0  0  0  0  0  0
  3  4  1  0  0  0  0
  4  5  1  0  0  0  0
  1  6  1  0  0  0  0
  4  7  2  0  0  0  0
  8  9  1  0  0  0  0
  7 10  1  0  0  0  0
 11 12  1  0  0  0  0
 12 13  2  0  0  0  0
 13 14  1  0  0  0  0
 10 14  1  0  0  0  0
  9 11  1  0  0  0  0
 10  9  2  0  0  0  0
 15 16  1  0  0  0  0
 16 17  1  0  0  0  0
 17 18  1  0  0  0  0
  1 18  2  0  0  0  0
  2 15  2  0  0  0  0
  1  2  1  0  0  0  0
  8 19  1  0  0  0  0
  3  8  2  0  0  0  0
 20 15  1  0  0  0  0
  3  2  1  0  0  0  0
 21 22  1  0  0  0  0
 22 23  2  0  0  0  0
 23 24  1  0  0  0  0
 20 24  2  0  0  0  0
 19 21  2  0  0  0  0
 20 19  1  0  0  0  0
 25 26  2  0  0  0  0
 17 27  2  0  0  0  0
 28 29  2  0  0  0  0
 29 30  1  0  0  0  0
 30 31  2  0  0  0  0
 13 31  1  0  0  0  0
 12 28  1  0  0  0  0
 31 32  1  0  0  0  0
 23 25  1  0  0  0  0
 33 34  1  0  0  0  0
 34 35  2  0  0  0  0
 35 36  1  0  0  0  0
  5 36  2  0  0  0  0
  6 33  2  0  0  0  0
  5  6  1  0  0  0  0
 21 37  1  0  0  0  0
 37 11  2  0  0  0  0
 14 38  2  0  0  0  0
 38 39  1  0  0  0  0
  7 40  1  0  0  0  0
 39 40  2  0  0  0  0
 40 41  1  0  0  0  0
 36 41  1  0  0  0  0
 41 42  2  0  0  0  0
 35 43  1  0  0  0  0
 43 44  2  0  0  0  0
 42 44  1  0  0  0  0
 34 45  1  0  0  0  0
 45 46  2  0  0  0  0
 46 47  1  0  0  0  0
 45 48  1  0  0  0  0
 46 49  1  0  0  0  0
 49 50  1  0  0  0  0
 51 52  2  0  0  0  0
 52 53  1  0  0  0  0
 53 54  2  0  0  0  0
 54 55  1  0  0  0  0
 50 51  1  0  0  0  0
 50 55  2  0  0  0  0
 47 56  1  0  0  0  0
 51 57  1  0  0  0  0
 57 58  1  0  0  0  0
 26 59  1  0  0  0  0
 59 60  1  0  0  0  0
 29 61  1  0  0  0  0
 32 62  1  0  0  0  0
 61 63  1  0  0  0  0
 53 64  1  0  0  0  0
 64 65  2  0  0  0  0
 65 66  1  0  0  0  0
 66 67  1  0  0  0  0
 67 54  1  0  0  0  0
 18 68  1  0  0  0  0
 22 69  1  0  0  0  0
 24 70  1  0  0  0  0
 25 71  1  0  0  0  0
 26 72  1  0  0  0  0
 28 73  1  0  0  0  0
 30 74  1  0  0  0  0
 33 75  1  0  0  0  0
 37 76  1  0  0  0  0
 38 77  1  0  0  0  0
 39 78  1  0  0  0  0
 42 79  1  0  0  0  0
 43 80  1  0  0  0  0
 44 81  1  0  0  0  0
 47 82  1  0  0  0  0
 47 83  1  0  0  0  0
 48 84  1  0  0  0  0
 52 85  1  0  0  0  0
 55 86  1  0  0  0  0
 56 87  1  0  0  0  0
 58 88  1  0  0  0  0
 58 89  1  0  0  0  0
 58 90  1  0  0  0  0
 59 91  1  0  0  0  0
 59 92  1  0  0  0  0
 60 93  1  0  0  0  0
 62 94  1  0  0  0  0
 62 95  1  0  0  0  0
 62 96  1  0  0  0  0
 63 97  1  0  0  0  0
 63 98  1  0  0  0  0
 63 99  1  0  0  0  0
 64100  1  0  0  0  0
 65101  1  0  0  0  0
 66102  1  0  0  0  0
 66103  1  0  0  0  0
M  END
