
  Mrv2101 10312211483D          

336433  0  0  0  0            999 V2000
   18.7952   -3.8609    6.5333 C   0  0  0  0  0  0  0  0  0  0  0  0
   18.8955   -2.7073    5.6541 C   0  0  0  0  0  0  0  0  0  0  0  0
   17.4629   -4.1152    6.6507 C   0  0  0  0  0  0  0  0  0  0  0  0
   16.8662   -3.1668    5.9027 C   0  0  0  0  0  0  0  0  0  0  0  0
   17.6038   -2.2276    5.2253 C   0  0  0  0  0  0  0  0  0  0  0  0
   14.7542   -4.1184    6.5182 C   0  0  0  0  0  0  0  0  0  0  0  0
   15.5354   -3.2128    5.8788 C   0  0  0  0  0  0  0  0  0  0  0  0
   16.7623   -5.1182    7.3683 C   0  0  0  0  0  0  0  0  0  0  0  0
   15.3353   -5.1549    7.3130 C   0  0  0  0  0  0  0  0  0  0  0  0
   14.6318   -6.1677    8.0203 C   0  0  0  0  0  0  0  0  0  0  0  0
   13.2055   -6.2236    7.9661 C   0  0  0  0  0  0  0  0  0  0  0  0
   12.3297   -5.3317    7.2496 C   0  0  0  0  0  0  0  0  0  0  0  0
   17.5190   -6.0360    8.1060 C   0  0  0  0  0  0  0  0  0  0  0  0
   16.7840   -7.0053    8.7855 O   0  0  0  0  0  0  0  0  0  0  0  0
   15.3919   -7.1342    8.7917 C   0  0  0  0  0  0  0  0  0  0  0  0
   12.5521   -7.2584    8.7070 C   0  0  0  0  0  0  0  0  0  0  0  0
   14.7054   -8.1761    9.5302 C   0  0  0  0  0  0  0  0  0  0  0  0
   13.2796   -8.1988    9.4722 C   0  0  0  0  0  0  0  0  0  0  0  0
   12.5355   -9.1746   10.1866 C   0  0  0  0  0  0  0  0  0  0  0  0
   11.1039   -9.2233   10.1650 C   0  0  0  0  0  0  0  0  0  0  0  0
   10.3924   -8.3145    9.4206 C   0  0  0  0  0  0  0  0  0  0  0  0
   11.1274   -7.3586    8.7049 C   0  0  0  0  0  0  0  0  0  0  0  0
   10.3598   -6.4580    7.9850 C   0  0  0  0  0  0  0  0  0  0  0  0
   10.9895   -5.4831    7.2827 C   0  0  0  0  0  0  0  0  0  0  0  0
    8.9763   -8.3644    9.4143 C   0  0  0  0  0  0  0  0  0  0  0  0
    8.2983   -7.4126    8.6773 C   0  0  0  0  0  0  0  0  0  0  0  0
    8.9720   -6.4489    7.9572 C   0  0  0  0  0  0  0  0  0  0  0  0
    6.0731   -8.2402    9.3085 C   0  0  0  0  0  0  0  0  0  0  0  0
    6.9170   -7.3897    8.6701 C   0  0  0  0  0  0  0  0  0  0  0  0
    8.2206   -9.3127   10.1322 C   0  0  0  0  0  0  0  0  0  0  0  0
    6.7969   -9.2338   10.0555 C   0  0  0  0  0  0  0  0  0  0  0  0
    6.1667  -10.2077   10.7710 C   0  0  0  0  0  0  0  0  0  0  0  0
    4.7930  -10.2082   10.7386 C   0  0  0  0  0  0  0  0  0  0  0  0
   10.3314  -10.1751   10.8679 C   0  0  0  0  0  0  0  0  0  0  0  0
    8.9139  -10.2909   10.8975 C   0  0  0  0  0  0  0  0  0  0  0  0
    8.2434  -11.3360   11.6500 C   0  0  0  0  0  0  0  0  0  0  0  0
    6.7989  -11.2539   11.5524 C   0  0  0  0  0  0  0  0  0  0  0  0
    9.1148  -12.2805   12.3571 C   0  0  0  0  0  0  0  0  0  0  0  0
    6.1691   -4.4838    6.6090 C   0  0  0  0  0  0  0  0  0  0  0  0
    6.9007   -3.4683    5.8961 C   0  0  0  0  0  0  0  0  0  0  0  0
    8.3216   -3.4440    5.8505 C   0  0  0  0  0  0  0  0  0  0  0  0
    8.9409   -4.4782    6.5407 C   0  0  0  0  0  0  0  0  0  0  0  0
    8.2631   -5.4666    7.2478 C   0  0  0  0  0  0  0  0  0  0  0  0
    6.8793   -5.4608    7.2757 C   0  0  0  0  0  0  0  0  0  0  0  0
    6.2250   -6.4538    7.9977 C   0  0  0  0  0  0  0  0  0  0  0  0
    4.8789   -6.6562    8.1536 C   0  0  0  0  0  0  0  0  0  0  0  0
    4.1021   -5.6878    7.4488 C   0  0  0  0  0  0  0  0  0  0  0  0
    4.7611   -4.6042    6.6997 C   0  0  0  0  0  0  0  0  0  0  0  0
    4.0805   -3.6056    5.9755 C   0  0  0  0  0  0  0  0  0  0  0  0
    4.7829   -2.5530    5.2721 C   0  0  0  0  0  0  0  0  0  0  0  0
    6.2140   -2.4613    5.2196 C   0  0  0  0  0  0  0  0  0  0  0  0
    2.7003   -5.8059    7.4349 C   0  0  0  0  0  0  0  0  0  0  0  0
    2.0182   -4.8119    6.6220 C   0  0  0  0  0  0  0  0  0  0  0  0
    2.6764   -3.7287    5.9390 C   0  0  0  0  0  0  0  0  0  0  0  0
   -0.0720   -5.9855    7.0248 C   0  0  0  0  0  0  0  0  0  0  0  0
    0.6229   -4.9279    6.4175 C   0  0  0  0  0  0  0  0  0  0  0  0
    1.9658   -6.8592    8.1224 C   0  0  0  0  0  0  0  0  0  0  0  0
    0.6098   -6.8577    7.8778 C   0  0  0  0  0  0  0  0  0  0  0  0
   -0.0303   -7.8526    8.5710 C   0  0  0  0  0  0  0  0  0  0  0  0
   -1.4215   -8.0214    8.4505 C   0  0  0  0  0  0  0  0  0  0  0  0
    0.8777   -8.5898    9.3359 C   0  0  0  0  0  0  0  0  0  0  0  0
   10.3053   -4.5344    6.5806 C   0  0  0  0  0  0  0  0  0  0  0  0
   14.0363   -0.8108    4.0122 C   0  0  0  0  0  0  0  0  0  0  0  0
   16.8307   -1.2384    4.4333 C   0  0  0  0  0  0  0  0  0  0  0  0
   15.3533   -1.2914    4.4236 C   0  0  0  0  0  0  0  0  0  0  0  0
   14.8802   -2.3006    5.1690 C   0  0  0  0  0  0  0  0  0  0  0  0
   13.5956   -2.5159    5.2829 C   0  0  0  0  0  0  0  0  0  0  0  0
   12.8987   -1.5699    4.5591 C   0  0  0  0  0  0  0  0  0  0  0  0
   11.4395   -1.5874    4.5511 C   0  0  0  0  0  0  0  0  0  0  0  0
   10.6991   -0.6459    3.8782 O   0  0  0  0  0  0  0  0  0  0  0  0
    8.4304   -1.4473    4.4873 C   0  0  0  0  0  0  0  0  0  0  0  0
    9.3184   -0.5436    3.8179 C   0  0  0  0  0  0  0  0  0  0  0  0
   10.6070   -2.5576    5.2278 C   0  0  0  0  0  0  0  0  0  0  0  0
    9.1407   -2.4719    5.1779 C   0  0  0  0  0  0  0  0  0  0  0  0
    6.9645   -1.4374    4.5265 C   0  0  0  0  0  0  0  0  0  0  0  0
   11.1313   -3.6498    5.9935 C   0  0  0  0  0  0  0  0  0  0  0  0
    2.5871  -10.4695   10.8448 C   0  0  0  0  0  0  0  0  0  0  0  0
    1.1450  -10.6010   10.8708 C   0  0  0  0  0  0  0  0  0  0  0  0
    0.3020   -9.6739   10.1453 C   0  0  0  0  0  0  0  0  0  0  0  0
    4.6494  -11.2575   11.4981 C   0  0  0  0  0  0  0  0  0  0  0  0
    3.3441  -11.4151   11.5661 C   0  0  0  0  0  0  0  0  0  0  0  0
    5.6847  -11.9778   12.0517 C   0  0  0  0  0  0  0  0  0  0  0  0
    8.8222  -13.4243   13.1502 C   0  0  0  0  0  0  0  0  0  0  0  0
    5.2722  -13.0570   12.8312 O   0  0  0  0  0  0  0  0  0  0  0  0
    3.9033  -13.3411   12.9982 C   0  0  0  0  0  0  0  0  0  0  0  0
    2.9777  -12.4783   12.3259 C   0  0  0  0  0  0  0  0  0  0  0  0
   -2.0152   -8.8146    9.4645 C   0  0  0  0  0  0  0  0  0  0  0  0
   -1.1683   -9.7707   10.1994 C   0  0  0  0  0  0  0  0  0  0  0  0
    0.7005  -11.7451   11.6810 C   0  0  0  0  0  0  0  0  0  0  0  0
    1.6151  -12.5752   12.3344 C   0  0  0  0  0  0  0  0  0  0  0  0
   -1.9316  -10.7725   10.9144 C   0  0  0  0  0  0  0  0  0  0  0  0
   -3.3087  -10.7252   10.8962 C   0  0  0  0  0  0  0  0  0  0  0  0
   -3.8679  -11.7815   11.5522 C   0  0  0  0  0  0  0  0  0  0  0  0
   -2.9175  -12.5918   12.1089 C   0  0  0  0  0  0  0  0  0  0  0  0
   -0.2771  -13.5321   12.9343 C   0  0  0  0  0  0  0  0  0  0  0  0
    1.0872  -13.5868   13.0548 C   0  0  0  0  0  0  0  0  0  0  0  0
   -5.2353  -11.9644   11.6319 C   0  0  0  0  0  0  0  0  0  0  0  0
   -5.7060  -13.0979   12.2892 C   0  0  0  0  0  0  0  0  0  0  0  0
   -4.7717  -13.9797   12.9053 C   0  0  0  0  0  0  0  0  0  0  0  0
   -3.3386  -13.7404   12.8650 C   0  0  0  0  0  0  0  0  0  0  0  0
   -3.4406   -8.6700    9.7124 C   0  0  0  0  0  0  0  0  0  0  0  0
   -4.0974   -9.7370   10.3336 C   0  0  0  0  0  0  0  0  0  0  0  0
   -5.5065   -9.8636   10.4365 C   0  0  0  0  0  0  0  0  0  0  0  0
   -6.0775  -11.0038   11.0507 C   0  0  0  0  0  0  0  0  0  0  0  0
    1.8667  -14.4934   13.7749 C   0  0  0  0  0  0  0  0  0  0  0  0
    3.2957  -14.3844   13.7594 C   0  0  0  0  0  0  0  0  0  0  0  0
   11.0654  -11.0782   11.5684 C   0  0  0  0  0  0  0  0  0  0  0  0
   10.5244  -12.0885   12.2724 C   0  0  0  0  0  0  0  0  0  0  0  0
   13.2060  -10.1436   10.9415 C   0  0  0  0  0  0  0  0  0  0  0  0
   12.4265  -11.0928   11.6158 C   0  0  0  0  0  0  0  0  0  0  0  0
   15.2902   -9.1888   10.3083 O   0  0  0  0  0  0  0  0  0  0  0  0
   14.6049  -10.1883   11.0162 C   0  0  0  0  0  0  0  0  0  0  0  0
    9.8588  -14.2312   13.7358 C   0  0  0  0  0  0  0  0  0  0  0  0
   11.6217  -12.8012   12.7890 C   0  0  0  0  0  0  0  0  0  0  0  0
   11.2461  -13.9329   13.5370 C   0  0  0  0  0  0  0  0  0  0  0  0
   12.8471  -12.1573   12.3769 C   0  0  0  0  0  0  0  0  0  0  0  0
    9.5517  -15.3369   14.4907 O   0  0  0  0  0  0  0  0  0  0  0  0
   -1.4216   -6.2500    6.7328 C   0  0  0  0  0  0  0  0  0  0  0  0
   -2.0633   -7.3685    7.3338 C   0  0  0  0  0  0  0  0  0  0  0  0
   -2.0945   -5.4239    5.7984 C   0  0  0  0  0  0  0  0  0  0  0  0
   -3.3388   -5.7935    5.3811 O   0  0  0  0  0  0  0  0  0  0  0  0
   -3.9281   -6.9529    5.7926 C   0  0  0  0  0  0  0  0  0  0  0  0
   -3.2822   -7.7763    6.7328 C   0  0  0  0  0  0  0  0  0  0  0  0
   -0.0903   -4.0420    5.5714 C   0  0  0  0  0  0  0  0  0  0  0  0
   -1.4573   -4.2784    5.2804 C   0  0  0  0  0  0  0  0  0  0  0  0
    1.9603   -2.7791    5.1535 C   0  0  0  0  0  0  0  0  0  0  0  0
    0.5645   -2.9425    4.9661 C   0  0  0  0  0  0  0  0  0  0  0  0
    2.6313   -1.6974    4.5085 C   0  0  0  0  0  0  0  0  0  0  0  0
    1.8990   -0.7503    3.7464 C   0  0  0  0  0  0  0  0  0  0  0  0
    0.5193   -0.9666    3.5090 C   0  0  0  0  0  0  0  0  0  0  0  0
   -0.1576   -2.0470    4.1326 C   0  0  0  0  0  0  0  0  0  0  0  0
   -1.5315   -2.3063    3.9177 C   0  0  0  0  0  0  0  0  0  0  0  0
   -2.1232   -3.4048    4.4712 O   0  0  0  0  0  0  0  0  0  0  0  0
    4.0462   -1.5770    4.5763 C   0  0  0  0  0  0  0  0  0  0  0  0
    8.9174    0.4092    3.1152 O   0  0  0  0  0  0  0  0  0  0  0  0
   14.2687  -12.2403   12.4690 C   0  0  0  0  0  0  0  0  0  0  0  0
   15.1220  -11.2714   11.8071 C   0  0  0  0  0  0  0  0  0  0  0  0
   -4.3119   -7.5727    9.4052 C   0  0  0  0  0  0  0  0  0  0  0  0
   -5.7369   -7.6826    9.4132 C   0  0  0  0  0  0  0  0  0  0  0  0
   -6.3397   -8.8572    9.9269 C   0  0  0  0  0  0  0  0  0  0  0  0
   -7.7510   -9.0383    9.9653 C   0  0  0  0  0  0  0  0  0  0  0  0
   -2.4700  -14.6374   13.5784 C   0  0  0  0  0  0  0  0  0  0  0  0
    1.1540  -15.4703   14.4807 C   0  0  0  0  0  0  0  0  0  0  0  0
    4.0180  -15.3308   14.5108 C   0  0  0  0  0  0  0  0  0  0  0  0
    3.3373  -16.3253   15.2446 C   0  0  0  0  0  0  0  0  0  0  0  0
    1.9205  -16.3970   15.2364 C   0  0  0  0  0  0  0  0  0  0  0  0
    1.2336  -17.3748   15.9741 C   0  0  0  0  0  0  0  0  0  0  0  0
   -7.1082  -13.2981   12.3056 C   0  0  0  0  0  0  0  0  0  0  0  0
   -0.1668  -17.4292   15.9378 C   0  0  0  0  0  0  0  0  0  0  0  0
   -0.9242  -16.5125   15.1624 C   0  0  0  0  0  0  0  0  0  0  0  0
   -2.3234  -16.6057   15.1113 C   0  0  0  0  0  0  0  0  0  0  0  0
   -3.0804  -15.7163   14.3113 C   0  0  0  0  0  0  0  0  0  0  0  0
   -4.4770  -15.9333   14.2711 C   0  0  0  0  0  0  0  0  0  0  0  0
   -5.3396  -15.0905   13.5714 C   0  0  0  0  0  0  0  0  0  0  0  0
   -6.7418  -15.3350   13.5607 C   0  0  0  0  0  0  0  0  0  0  0  0
   -7.6304  -14.4432   12.9293 C   0  0  0  0  0  0  0  0  0  0  0  0
   -7.9979  -12.3642   11.7068 C   0  0  0  0  0  0  0  0  0  0  0  0
   -2.9426  -17.5753   15.8500 O   0  0  0  0  0  0  0  0  0  0  0  0
   -1.9977   -2.9250   -2.9720 C   0  0  0  0  0  0  0  0  0  0  0  0
   -1.9254   -3.4296   -4.3231 C   0  0  0  0  0  0  0  0  0  0  0  0
    0.0574   -1.5636   -3.6228 C   0  0  0  0  0  0  0  0  0  0  0  0
   -0.9544   -1.9589   -2.6646 C   0  0  0  0  0  0  0  0  0  0  0  0
    0.9902   -1.8207   -6.0208 C   0  0  0  0  0  0  0  0  0  0  0  0
    2.0131   -0.9352   -5.6670 C   0  0  0  0  0  0  0  0  0  0  0  0
    0.8584   -2.4889   -7.3078 C   0  0  0  0  0  0  0  0  0  0  0  0
    2.0155   -2.2922   -8.1405 C   0  0  0  0  0  0  0  0  0  0  0  0
    3.0177   -1.3056   -7.8312 C   0  0  0  0  0  0  0  0  0  0  0  0
    3.0425   -0.6271   -6.5947 C   0  0  0  0  0  0  0  0  0  0  0  0
   -2.7544   -4.3361   -4.9724 C   0  0  0  0  0  0  0  0  0  0  0  0
   -3.7719   -4.8330   -4.2001 O   0  0  0  0  0  0  0  0  0  0  0  0
   -3.9417   -4.4391   -2.8790 C   0  0  0  0  0  0  0  0  0  0  0  0
   -3.0758   -3.4905   -2.2495 C   0  0  0  0  0  0  0  0  0  0  0  0
   -1.1657   -3.6508   -6.5002 C   0  0  0  0  0  0  0  0  0  0  0  0
   -2.2908   -4.4548   -6.3273 C   0  0  0  0  0  0  0  0  0  0  0  0
   -0.3386   -3.3164   -7.5972 C   0  0  0  0  0  0  0  0  0  0  0  0
   -0.9580   -3.8409   -8.7956 C   0  0  0  0  0  0  0  0  0  0  0  0
   -2.0496   -4.8051   -8.7264 C   0  0  0  0  0  0  0  0  0  0  0  0
   -2.6911   -5.1233   -7.4892 C   0  0  0  0  0  0  0  0  0  0  0  0
   -2.5756   -5.3899   -9.8996 C   0  0  0  0  0  0  0  0  0  0  0  0
   -2.1520   -4.9431  -11.1575 C   0  0  0  0  0  0  0  0  0  0  0  0
   -4.8908   -4.9350   -2.2322 O   0  0  0  0  0  0  0  0  0  0  0  0
    2.3279   -3.1232   -9.2436 C   0  0  0  0  0  0  0  0  0  0  0  0
    3.3940   -2.8551  -10.1174 C   0  0  0  0  0  0  0  0  0  0  0  0
    4.2362   -1.7721   -9.8426 C   0  0  0  0  0  0  0  0  0  0  0  0
    4.0461   -1.0617   -8.6973 O   0  0  0  0  0  0  0  0  0  0  0  0
   -0.8567   -1.3354   -1.4052 C   0  0  0  0  0  0  0  0  0  0  0  0
    0.2058   -0.4531   -1.0345 C   0  0  0  0  0  0  0  0  0  0  0  0
    1.2546   -0.1386   -1.9667 C   0  0  0  0  0  0  0  0  0  0  0  0
    1.1041   -0.6803   -3.3031 C   0  0  0  0  0  0  0  0  0  0  0  0
    4.0768    0.2226   -6.2088 O   0  0  0  0  0  0  0  0  0  0  0  0
    4.1345    0.7364   -4.9303 C   0  0  0  0  0  0  0  0  0  0  0  0
    3.2800    0.8713   -2.8067 C   0  0  0  0  0  0  0  0  0  0  0  0
    2.4532    0.6380   -1.6980 C   0  0  0  0  0  0  0  0  0  0  0  0
    0.1145    0.0899    0.2500 C   0  0  0  0  0  0  0  0  0  0  0  0
   -0.0058   -0.6874    1.3416 C   0  0  0  0  0  0  0  0  0  0  0  0
    0.0873    1.4154    0.3584 O   0  0  0  0  0  0  0  0  0  0  0  0
   -1.2186   -3.8995  -11.2563 C   0  0  0  0  0  0  0  0  0  0  0  0
   -0.8866   -3.3985  -12.4726 O   0  0  0  0  0  0  0  0  0  0  0  0
   -0.1401   -0.1818    2.5877 O   0  0  0  0  0  0  0  0  0  0  0  0
    5.0276    1.4884   -4.1329 C   0  0  0  0  0  0  0  0  0  0  0  0
    4.4777    1.5236   -2.8479 C   0  0  0  0  0  0  0  0  0  0  0  0
    5.0386    2.0652   -1.6928 C   0  0  0  0  0  0  0  0  0  0  0  0
    6.3023    2.6744   -1.8815 C   0  0  0  0  0  0  0  0  0  0  0  0
    3.0303    1.1883   -0.5069 C   0  0  0  0  0  0  0  0  0  0  0  0
    4.2808    1.8939   -0.4995 C   0  0  0  0  0  0  0  0  0  0  0  0
    6.2788    2.1088   -4.3037 C   0  0  0  0  0  0  0  0  0  0  0  0
    6.9092    2.6979   -3.1712 C   0  0  0  0  0  0  0  0  0  0  0  0
    9.2178  -15.0623   15.7649 C   0  0  0  0  0  0  0  0  0  0  0  0
   10.0660  -14.4953   16.6409 C   0  0  0  0  0  0  0  0  0  0  0  0
    9.7946  -14.2030   17.9618 C   0  0  0  0  0  0  0  0  0  0  0  0
   10.7275  -14.3160   19.0230 C   0  0  0  0  0  0  0  0  0  0  0  0
   11.9742  -13.9921   21.5619 C   0  0  0  0  0  0  0  0  0  0  0  0
   12.6660  -14.6196   20.4797 C   0  0  0  0  0  0  0  0  0  0  0  0
   12.0451  -14.8217   19.2016 C   0  0  0  0  0  0  0  0  0  0  0  0
   12.5942  -13.7320   22.8042 C   0  0  0  0  0  0  0  0  0  0  0  0
    8.8384  -13.3708   19.8322 C   0  0  0  0  0  0  0  0  0  0  0  0
    8.6058  -13.6453   18.4951 C   0  0  0  0  0  0  0  0  0  0  0  0
   11.8648  -13.0710   23.8497 C   0  0  0  0  0  0  0  0  0  0  0  0
   13.9625  -14.1114   22.9521 C   0  0  0  0  0  0  0  0  0  0  0  0
   14.6412  -14.7860   21.9091 C   0  0  0  0  0  0  0  0  0  0  0  0
   13.9994  -15.0438   20.6849 C   0  0  0  0  0  0  0  0  0  0  0  0
   13.9909  -13.0307   25.1279 C   0  0  0  0  0  0  0  0  0  0  0  0
   14.6372  -13.7876   24.1440 C   0  0  0  0  0  0  0  0  0  0  0  0
    9.8575  -12.9846   22.4111 C   0  0  0  0  0  0  0  0  0  0  0  0
    8.5084  -12.5792   22.0859 C   0  0  0  0  0  0  0  0  0  0  0  0
    7.9735  -12.7764   20.7642 C   0  0  0  0  0  0  0  0  0  0  0  0
    6.6930  -12.4609   20.2303 C   0  0  0  0  0  0  0  0  0  0  0  0
    6.3850  -12.7157   18.8656 C   0  0  0  0  0  0  0  0  0  0  0  0
    7.3375  -13.2945   17.9890 C   0  0  0  0  0  0  0  0  0  0  0  0
   14.6569  -15.6927   19.6785 O   0  0  0  0  0  0  0  0  0  0  0  0
   14.0798  -15.9511   18.4698 C   0  0  0  0  0  0  0  0  0  0  0  0
   10.4467  -12.8176   23.7074 C   0  0  0  0  0  0  0  0  0  0  0  0
    9.7833  -12.5652   26.1436 C   0  0  0  0  0  0  0  0  0  0  0  0
    9.5425  -12.4250   24.7510 C   0  0  0  0  0  0  0  0  0  0  0  0
    8.2511  -11.9184   24.4225 C   0  0  0  0  0  0  0  0  0  0  0  0
    7.7578  -11.9731   23.1109 C   0  0  0  0  0  0  0  0  0  0  0  0
    7.4212  -11.4135   25.3864 O   0  0  0  0  0  0  0  0  0  0  0  0
    7.7285  -11.4310   26.7127 C   0  0  0  0  0  0  0  0  0  0  0  0
    8.9165  -12.0474   27.1219 C   0  0  0  0  0  0  0  0  0  0  0  0
   12.7682  -15.5229   18.2108 C   0  0  0  0  0  0  0  0  0  0  0  0
   -0.6407   -3.3571  -10.0919 C   0  0  0  0  0  0  0  0  0  0  0  0
   -6.6030   -6.6850    8.9061 C   0  0  0  0  0  0  0  0  0  0  0  0
   -8.0067   -6.8635    8.9003 C   0  0  0  0  0  0  0  0  0  0  0  0
   -8.5937   -8.0355    9.4340 C   0  0  0  0  0  0  0  0  0  0  0  0
   -9.9875   -8.2639    9.4760 C   0  0  0  0  0  0  0  0  0  0  0  0
  -10.4880   -9.4190   10.0238 O   0  0  0  0  0  0  0  0  0  0  0  0
   -9.7064  -10.4077   10.5597 C   0  0  0  0  0  0  0  0  0  0  0  0
  -10.2447  -11.5907   11.1249 C   0  0  0  0  0  0  0  0  0  0  0  0
   -9.3993  -12.5725   11.7083 C   0  0  0  0  0  0  0  0  0  0  0  0
   -9.8669  -13.7625   12.3113 C   0  0  0  0  0  0  0  0  0  0  0  0
   -8.9866  -14.6356   12.9007 O   0  0  0  0  0  0  0  0  0  0  0  0
    4.7300   -0.5103    3.9266 C   0  0  0  0  0  0  0  0  0  0  0  0
    6.1468   -0.4525    3.9153 C   0  0  0  0  0  0  0  0  0  0  0  0
    2.5745    0.3708    3.2088 C   0  0  0  0  0  0  0  0  0  0  0  0
    3.9690    0.4893    3.2893 C   0  0  0  0  0  0  0  0  0  0  0  0
   19.5736   -4.7904    7.2883 C   0  0  0  0  0  0  0  0  0  0  0  0
   18.9455   -5.8508    8.0556 C   0  0  0  0  0  0  0  0  0  0  0  0
   13.9139   -0.0102    3.3900 H   0  0  0  0  0  0  0  0  0  0  0  0
   17.3193   -0.5233    3.8936 H   0  0  0  0  0  0  0  0  0  0  0  0
    7.8487  -13.6857   13.3085 H   0  0  0  0  0  0  0  0  0  0  0  0
   11.9681  -14.5321   13.9422 H   0  0  0  0  0  0  0  0  0  0  0  0
   -4.8376   -7.2162    5.4132 H   0  0  0  0  0  0  0  0  0  0  0  0
   -2.1061   -1.6915    3.3380 H   0  0  0  0  0  0  0  0  0  0  0  0
   14.6868  -12.9941   13.0140 H   0  0  0  0  0  0  0  0  0  0  0  0
   16.1351  -11.3587   11.9012 H   0  0  0  0  0  0  0  0  0  0  0  0
    5.0402  -15.3024   14.5313 H   0  0  0  0  0  0  0  0  0  0  0  0
    3.8867  -16.9965   15.7879 H   0  0  0  0  0  0  0  0  0  0  0  0
    1.7448  -18.0545   16.5445 H   0  0  0  0  0  0  0  0  0  0  0  0
   -0.6218  -18.1604   16.4891 H   0  0  0  0  0  0  0  0  0  0  0  0
   -4.8980  -16.7183   14.7741 H   0  0  0  0  0  0  0  0  0  0  0  0
   -7.1290  -16.1596   14.0241 H   0  0  0  0  0  0  0  0  0  0  0  0
   -2.6880  -17.3944   16.7803 H   0  0  0  0  0  0  0  0  0  0  0  0
   -3.2394   -3.2215   -1.2769 H   0  0  0  0  0  0  0  0  0  0  0  0
   -3.4753   -5.7768   -7.4379 H   0  0  0  0  0  0  0  0  0  0  0  0
   -3.3001   -6.1152   -9.8513 H   0  0  0  0  0  0  0  0  0  0  0  0
   -2.5530   -5.3550  -12.0020 H   0  0  0  0  0  0  0  0  0  0  0  0
    1.7889   -3.9702   -9.4201 H   0  0  0  0  0  0  0  0  0  0  0  0
    3.5614   -3.4486  -10.9319 H   0  0  0  0  0  0  0  0  0  0  0  0
    5.0047   -1.5340  -10.4715 H   0  0  0  0  0  0  0  0  0  0  0  0
   -1.6021   -1.5308   -0.7305 H   0  0  0  0  0  0  0  0  0  0  0  0
   -0.0352   -1.6796    1.2112 H   0  0  0  0  0  0  0  0  0  0  0  0
   -0.1394    1.6193    1.2905 H   0  0  0  0  0  0  0  0  0  0  0  0
   -1.5941   -3.7037  -13.0821 H   0  0  0  0  0  0  0  0  0  0  0  0
    6.7896    3.0907   -1.0850 H   0  0  0  0  0  0  0  0  0  0  0  0
    2.5742    1.0652    0.3891 H   0  0  0  0  0  0  0  0  0  0  0  0
    4.6418    2.2616    0.3835 H   0  0  0  0  0  0  0  0  0  0  0  0
    6.7273    2.1217   -5.2203 H   0  0  0  0  0  0  0  0  0  0  0  0
    7.8232    3.1419   -3.2840 H   0  0  0  0  0  0  0  0  0  0  0  0
   10.9750  -14.2559   16.3232 H   0  0  0  0  0  0  0  0  0  0  0  0
   15.6156  -15.0814   22.0238 H   0  0  0  0  0  0  0  0  0  0  0  0
   14.5015  -12.7483   25.9679 H   0  0  0  0  0  0  0  0  0  0  0  0
   15.6086  -14.0707   24.2913 H   0  0  0  0  0  0  0  0  0  0  0  0
    5.9721  -12.0398   20.8195 H   0  0  0  0  0  0  0  0  0  0  0  0
    5.4600  -12.4734   18.5071 H   0  0  0  0  0  0  0  0  0  0  0  0
    7.0941  -13.4491   17.0090 H   0  0  0  0  0  0  0  0  0  0  0  0
   14.6109  -16.4537   17.7563 H   0  0  0  0  0  0  0  0  0  0  0  0
    6.8231  -11.5986   22.9257 H   0  0  0  0  0  0  0  0  0  0  0  0
    7.0904  -11.0242   27.3980 H   0  0  0  0  0  0  0  0  0  0  0  0
    9.1479  -12.1271   28.1176 H   0  0  0  0  0  0  0  0  0  0  0  0
   12.3666  -15.7501   17.3069 H   0  0  0  0  0  0  0  0  0  0  0  0
   -0.0033   -2.5686  -10.2107 H   0  0  0  0  0  0  0  0  0  0  0  0
   -6.2152   -5.8220    8.5187 H   0  0  0  0  0  0  0  0  0  0  0  0
   -8.5983   -6.1277    8.5043 H   0  0  0  0  0  0  0  0  0  0  0  0
  -10.6383   -7.5703    9.1031 H   0  0  0  0  0  0  0  0  0  0  0  0
  -11.2577  -11.7263   11.1166 H   0  0  0  0  0  0  0  0  0  0  0  0
  -10.8636  -13.9872   12.3227 H   0  0  0  0  0  0  0  0  0  0  0  0
    6.5749    0.3350    3.4349 H   0  0  0  0  0  0  0  0  0  0  0  0
    2.0608    1.1171    2.7379 H   0  0  0  0  0  0  0  0  0  0  0  0
    4.4189    1.3093    2.8693 H   0  0  0  0  0  0  0  0  0  0  0  0
   20.5923   -4.7070    7.2854 H   0  0  0  0  0  0  0  0  0  0  0  0
   19.5372   -6.4965    8.5808 H   0  0  0  0  0  0  0  0  0  0  0  0
   10.1044  -13.7610   20.1284 C   0  0  0  0  0  0  0  0  0  0  0  0
   10.6452  -13.5788   21.3939 C   0  0  0  0  0  0  0  0  0  0  0  0
   12.6520  -12.6411   24.9528 C   0  0  0  0  0  0  0  0  0  0  0  0
    0.0101   -2.1459   -4.9796 C   0  0  0  0  0  0  0  0  0  0  0  0
   -1.0209   -3.1073   -5.3046 C   0  0  0  0  0  0  0  0  0  0  0  0
    2.0296   -0.4054   -4.3556 C   0  0  0  0  0  0  0  0  0  0  0  0
    3.0996    0.4038   -4.0657 C   0  0  0  0  0  0  0  0  0  0  0  0
   13.5161   -3.6359    6.1018 C   0  0  0  0  0  0  0  0  0  0  0  0
   12.3568   -4.1912    6.4322 C   0  0  0  0  0  0  0  0  0  0  0  0
    2.1820   -8.0003    9.0004 C   0  0  0  0  0  0  0  0  0  0  0  0
    3.5853   -9.6152   10.2665 C   0  0  0  0  0  0  0  0  0  0  0  0
   10.5909  -13.0850   26.4882 H   0  0  0  0  0  0  0  0  0  0  0  0
   12.2803  -11.9958   25.6444 H   0  0  0  0  0  0  0  0  0  0  0  0
    3.4851   -8.4620    9.4189 C   0  0  0  0  0  0  0  0  0  0  0  0
    4.7171   -7.8260    8.9901 C   0  0  0  0  0  0  0  0  0  0  0  0
   -1.7235  -11.9357   11.7134 C   0  0  0  0  0  0  0  0  0  0  0  0
   -0.4898  -12.3954   12.0906 C   0  0  0  0  0  0  0  0  0  0  0  0
   19.7816   -2.2850    5.3719 H   0  0  0  0  0  0  0  0  0  0  0  0
    8.3094  -15.3336   16.0546 H   0  0  0  0  0  0  0  0  0  0  0  0
   -3.7235   -8.6628    6.9861 H   0  0  0  0  0  0  0  0  0  0  0  0
   -3.9019   -6.6781    9.1317 H   0  0  0  0  0  0  0  0  0  0  0  0
   -0.2811  -15.4935   14.4139 C   0  0  0  0  0  0  0  0  0  0  0  0
   -1.0385  -14.5320   13.6258 C   0  0  0  0  0  0  0  0  0  0  0  0
   -7.4680  -11.1980   11.1012 C   0  0  0  0  0  0  0  0  0  0  0  0
   -8.3076  -10.2154   10.5384 C   0  0  0  0  0  0  0  0  0  0  0  0
 84 85  1  0  0  0  0
 82 84  1  0  0  0  0
 70 72  1  0  0  0  0
 86 85  1  0  0  0  0
106 85  2  0  0  0  0
 96105  1  0  0  0  0
 86 90  2  0  0  0  0
105106  1  0  0  0  0
 92 93  1  0  0  0  0
104 97  2  0  0  0  0
102103  2  0  0  0  0
103104  1  0  0  0  0
 92 91  2  0  0  0  0
 88 91  1  0  0  0  0
102 92  1  0  0  0  0
 87101  2  0  0  0  0
101102  1  0  0  0  0
 94100  1  0  0  0  0
 93 97  1  0  0  0  0
 99100  1  0  0  0  0
 98 99  2  0  0  0  0
 97 98  1  0  0  0  0
 89 90  1  0  0  0  0
 96 90  1  0  0  0  0
 95 96  2  0  0  0  0
 93 94  2  0  0  0  0
 89 78  2  0  0  0  0
 86 81  1  0  0  0  0
 59 61  1  0  0  0  0
 88 79  2  0  0  0  0
 60 87  1  0  0  0  0
 87 88  1  0  0  0  0
 80 82  1  0  0  0  0
 81 80  2  0  0  0  0
 37 36  1  0  0  0  0
 33 80  1  0  0  0  0
 32 37  1  0  0  0  0
 33 32  2  0  0  0  0
 81 77  1  0  0  0  0
 61 79  1  0  0  0  0
 78 79  1  0  0  0  0
 77 78  1  0  0  0  0
 75 71  1  0  0  0  0
 49 54  2  0  0  0  0
 51 75  2  0  0  0  0
  7  6  1  0  0  0  0
  4  7  1  0  0  0  0
 66  7  2  0  0  0  0
  5  4  1  0  0  0  0
  2  5  1  0  0  0  0
 64  5  2  0  0  0  0
 62 42  1  0  0  0  0
 42 41  1  0  0  0  0
 62 76  1  0  0  0  0
 40 51  1  0  0  0  0
 41 40  2  0  0  0  0
 74 41  1  0  0  0  0
 67 66  1  0  0  0  0
 66 65  1  0  0  0  0
 73 74  1  0  0  0  0
 68 67  2  0  0  0  0
 69 68  1  0  0  0  0
 73 69  2  0  0  0  0
 73 76  1  0  0  0  0
 71 74  2  0  0  0  0
 69 70  1  0  0  0  0
 63 65  2  0  0  0  0
 64 65  1  0  0  0  0
 45 29  1  0  0  0  0
 27 26  1  0  0  0  0
 23 27  2  0  0  0  0
 43 27  1  0  0  0  0
 24 23  1  0  0  0  0
 62 24  2  0  0  0  0
 46 45  2  0  0  0  0
 45 44  1  0  0  0  0
 57 58  2  0  0  0  0
 47 46  1  0  0  0  0
 52 47  1  0  0  0  0
 57 52  1  0  0  0  0
 56 53  1  0  0  0  0
 55 58  1  0  0  0  0
 55 56  2  0  0  0  0
 49 48  1  0  0  0  0
 53 54  1  0  0  0  0
 52 53  2  0  0  0  0
 39 48  1  0  0  0  0
 39 44  2  0  0  0  0
 47 48  2  0  0  0  0
 43 44  1  0  0  0  0
 42 43  2  0  0  0  0
 39 40  1  0  0  0  0
 24 12  1  0  0  0  0
 15 17  2  0  0  0  0
 16 11  1  0  0  0  0
 20 19  2  0  0  0  0
 34 20  1  0  0  0  0
 19 18  1  0  0  0  0
 30 31  1  0  0  0  0
 21 20  1  0  0  0  0
 25 21  1  0  0  0  0
 30 25  2  0  0  0  0
 30 35  1  0  0  0  0
 29 26  2  0  0  0  0
 31 32  1  0  0  0  0
 28 31  2  0  0  0  0
 28 29  1  0  0  0  0
 23 22  1  0  0  0  0
 25 26  1  0  0  0  0
 16 22  1  0  0  0  0
 16 18  2  0  0  0  0
 21 22  2  0  0  0  0
 17 18  1  0  0  0  0
 14 13  1  0  0  0  0
  8  9  1  0  0  0  0
 15 10  1  0  0  0  0
  3  1  1  0  0  0  0
  8  3  1  0  0  0  0
  8 13  2  0  0  0  0
 14 15  1  0  0  0  0
  9 10  2  0  0  0  0
  6  9  1  0  0  0  0
 11 12  2  0  0  0  0
 10 11  1  0  0  0  0
  3  4  2  0  0  0  0
107108  1  0  0  0  0
 38108  2  0  0  0  0
 38 36  1  0  0  0  0
 36 35  2  0  0  0  0
 34107  2  0  0  0  0
 35 34  1  0  0  0  0
107110  1  0  0  0  0
 19109  1  0  0  0  0
111112  1  0  0  0  0
 17111  1  0  0  0  0
 83113  2  0  0  0  0
114115  2  0  0  0  0
113115  1  0  0  0  0
 83 38  1  0  0  0  0
108114  1  0  0  0  0
113117  1  0  0  0  0
 71 72  1  0  0  0  0
118119  2  0  0  0  0
 59 58  1  0  0  0  0
119 60  1  0  0  0  0
 59 60  2  0  0  0  0
120121  1  0  0  0  0
121122  1  0  0  0  0
122123  2  0  0  0  0
118120  1  0  0  0  0
119123  1  0  0  0  0
120125  2  0  0  0  0
118 55  1  0  0  0  0
 56124  1  0  0  0  0
126127  1  0  0  0  0
128129  1  0  0  0  0
129130  2  0  0  0  0
130131  1  0  0  0  0
126128  2  0  0  0  0
127131  1  0  0  0  0
132133  1  0  0  0  0
124127  2  0  0  0  0
131132  2  0  0  0  0
133125  1  0  0  0  0
124125  1  0  0  0  0
 50134  2  0  0  0  0
 49 50  1  0  0  0  0
134128  1  0  0  0  0
126 54  1  0  0  0  0
 72135  2  0  0  0  0
136137  2  0  0  0  0
116136  1  0  0  0  0
110116  2  0  0  0  0
137112  1  0  0  0  0
110109  1  0  0  0  0
112109  2  0  0  0  0
101138  1  0  0  0  0
138139  2  0  0  0  0
103140  1  0  0  0  0
139140  1  0  0  0  0
140141  2  0  0  0  0
100142  2  0  0  0  0
 50 51  1  0  0  0  0
105143  2  0  0  0  0
106144  1  0  0  0  0
144145  2  0  0  0  0
143146  1  0  0  0  0
146147  2  0  0  0  0
146145  1  0  0  0  0
 98148  1  0  0  0  0
147149  1  0  0  0  0
150149  2  0  0  0  0
150151  1  0  0  0  0
142152  1  0  0  0  0
152151  2  0  0  0  0
152153  1  0  0  0  0
 99154  1  0  0  0  0
153154  2  0  0  0  0
154155  1  0  0  0  0
155156  2  0  0  0  0
156148  1  0  0  0  0
148157  2  0  0  0  0
151158  1  0  0  0  0
159162  1  0  0  0  0
165166  1  0  0  0  0
166167  1  0  0  0  0
167168  2  0  0  0  0
164168  1  0  0  0  0
163165  2  0  0  0  0
163164  1  0  0  0  0
169170  1  0  0  0  0
170171  1  0  0  0  0
171172  1  0  0  0  0
159172  2  0  0  0  0
160169  2  0  0  0  0
159160  1  0  0  0  0
174169  1  0  0  0  0
175176  1  0  0  0  0
176177  2  0  0  0  0
177178  1  0  0  0  0
174178  2  0  0  0  0
173175  2  0  0  0  0
174173  1  0  0  0  0
179180  2  0  0  0  0
171181  2  0  0  0  0
182183  1  0  0  0  0
183184  2  0  0  0  0
184185  1  0  0  0  0
167185  1  0  0  0  0
166182  2  0  0  0  0
177179  1  0  0  0  0
186187  1  0  0  0  0
187188  2  0  0  0  0
189188  1  0  0  0  0
189161  2  0  0  0  0
162186  2  0  0  0  0
161162  1  0  0  0  0
168190  1  0  0  0  0
191190  1  0  0  0  0
192193  2  0  0  0  0
187194  1  0  0  0  0
194195  2  0  0  0  0
194196  1  0  0  0  0
180197  1  0  0  0  0
197198  1  0  0  0  0
130199  1  0  0  0  0
195199  1  0  0  0  0
191200  1  0  0  0  0
192201  1  0  0  0  0
201200  2  0  0  0  0
201202  1  0  0  0  0
202203  2  0  0  0  0
193204  1  0  0  0  0
204205  2  0  0  0  0
205202  1  0  0  0  0
200206  1  0  0  0  0
206207  2  0  0  0  0
207203  1  0  0  0  0
210209  1  0  0  0  0
210211  2  0  0  0  0
208209  2  0  0  0  0
213214  2  0  0  0  0
216217  2  0  0  0  0
210217  1  0  0  0  0
219220  1  0  0  0  0
220221  2  0  0  0  0
213221  1  0  0  0  0
213212  1  0  0  0  0
215219  1  0  0  0  0
222223  1  0  0  0  0
219223  2  0  0  0  0
226227  2  0  0  0  0
228229  2  0  0  0  0
227228  1  0  0  0  0
229217  1  0  0  0  0
226216  1  0  0  0  0
221230  1  0  0  0  0
230231  1  0  0  0  0
215212  2  0  0  0  0
225226  1  0  0  0  0
233234  2  0  0  0  0
232234  1  0  0  0  0
235236  2  0  0  0  0
234235  1  0  0  0  0
236225  1  0  0  0  0
232224  1  0  0  0  0
225224  2  0  0  0  0
235237  1  0  0  0  0
237238  1  0  0  0  0
233239  1  0  0  0  0
239238  2  0  0  0  0
214240  1  0  0  0  0
240231  2  0  0  0  0
176241  1  0  0  0  0
197241  2  0  0  0  0
117208  1  0  0  0  0
139242  1  0  0  0  0
242243  2  0  0  0  0
141244  1  0  0  0  0
244243  1  0  0  0  0
244245  2  0  0  0  0
245246  1  0  0  0  0
246247  1  0  0  0  0
247248  2  0  0  0  0
157249  1  0  0  0  0
248249  1  0  0  0  0
249250  2  0  0  0  0
156251  1  0  0  0  0
250251  1  0  0  0  0
134252  1  0  0  0  0
 75253  1  0  0  0  0
252253  2  0  0  0  0
129254  1  0  0  0  0
252255  1  0  0  0  0
254255  2  0  0  0  0
  1256  1  0  0  0  0
 13257  1  0  0  0  0
257256  2  0  0  0  0
 63258  1  0  0  0  0
 64259  1  0  0  0  0
 83260  1  0  0  0  0
115261  1  0  0  0  0
122262  1  0  0  0  0
132263  1  0  0  0  0
136264  1  0  0  0  0
137265  1  0  0  0  0
144266  1  0  0  0  0
145267  1  0  0  0  0
147268  1  0  0  0  0
149269  1  0  0  0  0
153270  1  0  0  0  0
155271  1  0  0  0  0
158272  1  0  0  0  0
172273  1  0  0  0  0
178274  1  0  0  0  0
179275  1  0  0  0  0
180276  1  0  0  0  0
182277  1  0  0  0  0
183278  1  0  0  0  0
184279  1  0  0  0  0
186280  1  0  0  0  0
195281  1  0  0  0  0
196282  1  0  0  0  0
198283  1  0  0  0  0
203284  1  0  0  0  0
204285  1  0  0  0  0
205286  1  0  0  0  0
206287  1  0  0  0  0
207288  1  0  0  0  0
209289  1  0  0  0  0
220290  1  0  0  0  0
222291  1  0  0  0  0
223292  1  0  0  0  0
227293  1  0  0  0  0
228294  1  0  0  0  0
229295  1  0  0  0  0
231296  1  0  0  0  0
236297  1  0  0  0  0
238298  1  0  0  0  0
239299  1  0  0  0  0
240300  1  0  0  0  0
241301  1  0  0  0  0
242302  1  0  0  0  0
243303  1  0  0  0  0
245304  1  0  0  0  0
248305  1  0  0  0  0
250306  1  0  0  0  0
253307  1  0  0  0  0
254308  1  0  0  0  0
255309  1  0  0  0  0
256310  1  0  0  0  0
257311  1  0  0  0  0
211312  1  0  0  0  0
216312  1  0  0  0  0
312313  2  0  0  0  0
212313  1  0  0  0  0
218232  2  0  0  0  0
218314  1  0  0  0  0
222314  2  0  0  0  0
163315  1  0  0  0  0
315316  2  0  0  0  0
160316  1  0  0  0  0
173316  1  0  0  0  0
189317  1  0  0  0  0
317318  1  0  0  0  0
191318  2  0  0  0  0
318192  1  0  0  0  0
 67319  1  0  0  0  0
  6319  2  0  0  0  0
319320  1  0  0  0  0
320 12  1  0  0  0  0
320 76  2  0  0  0  0
 68 63  1  0  0  0  0
  1  2  2  0  0  0  0
 57321  1  0  0  0  0
 61321  2  0  0  0  0
322 77  2  0  0  0  0
 33322  1  0  0  0  0
233323  1  0  0  0  0
314324  1  0  0  0  0
214211  1  0  0  0  0
322325  1  0  0  0  0
325321  1  0  0  0  0
325326  2  0  0  0  0
 28326  1  0  0  0  0
326 46  1  0  0  0  0
 82 37  2  0  0  0  0
116114  1  0  0  0  0
 91327  1  0  0  0  0
 94327  1  0  0  0  0
327328  2  0  0  0  0
 89328  1  0  0  0  0
 95328  1  0  0  0  0
  2329  1  0  0  0  0
208330  1  0  0  0  0
123331  1  0  0  0  0
138332  1  0  0  0  0
150333  1  0  0  0  0
143333  1  0  0  0  0
333334  2  0  0  0  0
142334  1  0  0  0  0
334 95  1  0  0  0  0
317164  2  0  0  0  0
315161  1  0  0  0  0
165175  1  0  0  0  0
104335  1  0  0  0  0
335157  1  0  0  0  0
335336  2  0  0  0  0
141336  1  0  0  0  0
247336  1  0  0  0  0
218215  1  0  0  0  0
313224  1  0  0  0  0
188193  1  0  0  0  0
M  END
