
  Mrv2101 10312211493D          

377511  0  0  0  0            999 V2000
  -19.0899  -10.1751    3.0392 C   0  0  0  0  0  0  0  0  0  0  0  0
  -19.8093  -11.2319    3.6673 C   0  0  0  0  0  0  0  0  0  0  0  0
  -19.3179  -12.5648    3.6164 C   0  0  0  0  0  0  0  0  0  0  0  0
  -18.0970  -12.8372    2.9306 C   0  0  0  0  0  0  0  0  0  0  0  0
  -17.3776  -11.7804    2.3026 C   0  0  0  0  0  0  0  0  0  0  0  0
  -17.8744  -10.4487    2.3570 C   0  0  0  0  0  0  0  0  0  0  0  0
  -17.1578   -9.3899    1.7302 C   0  0  0  0  0  0  0  0  0  0  0  0
  -17.6535   -8.0576    1.7839 C   0  0  0  0  0  0  0  0  0  0  0  0
  -18.8672   -7.7825    2.4647 C   0  0  0  0  0  0  0  0  0  0  0  0
  -19.5819   -8.8414    3.0904 C   0  0  0  0  0  0  0  0  0  0  0  0
  -20.7946   -8.5657    3.7705 C   0  0  0  0  0  0  0  0  0  0  0  0
  -21.5115   -9.6231    4.3972 C   0  0  0  0  0  0  0  0  0  0  0  0
  -21.0240  -10.9568    4.3488 C   0  0  0  0  0  0  0  0  0  0  0  0
  -19.3618   -6.4490    2.5174 C   0  0  0  0  0  0  0  0  0  0  0  0
  -20.5745   -6.1722    3.1974 C   0  0  0  0  0  0  0  0  0  0  0  0
  -21.2860   -7.2318    3.8212 C   0  0  0  0  0  0  0  0  0  0  0  0
  -20.3625   -3.7799    2.6294 C   0  0  0  0  0  0  0  0  0  0  0  0
  -21.0733   -4.8398    3.2529 C   0  0  0  0  0  0  0  0  0  0  0  0
  -18.6497   -5.3891    1.8932 C   0  0  0  0  0  0  0  0  0  0  0  0
  -19.1478   -4.0562    1.9482 C   0  0  0  0  0  0  0  0  0  0  0  0
  -18.4343   -2.9973    1.3233 C   0  0  0  0  0  0  0  0  0  0  0  0
  -18.9334   -1.6658    1.3790 C   0  0  0  0  0  0  0  0  0  0  0  0
  -20.1496   -1.3914    2.0616 C   0  0  0  0  0  0  0  0  0  0  0  0
  -20.8643   -2.4488    2.6869 C   0  0  0  0  0  0  0  0  0  0  0  0
  -16.9394   -6.9982    1.1585 C   0  0  0  0  0  0  0  0  0  0  0  0
  -17.4358   -5.6652    1.2124 C   0  0  0  0  0  0  0  0  0  0  0  0
  -16.7221   -4.6059    0.5873 C   0  0  0  0  0  0  0  0  0  0  0  0
  -17.2192   -3.2729    0.6416 C   0  0  0  0  0  0  0  0  0  0  0  0
  -17.5953  -14.1667    2.8729 C   0  0  0  0  0  0  0  0  0  0  0  0
  -16.3712  -14.4451    2.1864 C   0  0  0  0  0  0  0  0  0  0  0  0
  -15.6584  -13.3795    1.5607 C   0  0  0  0  0  0  0  0  0  0  0  0
  -16.1601  -12.0498    1.6184 C   0  0  0  0  0  0  0  0  0  0  0  0
  -15.4442  -10.9901    0.9920 C   0  0  0  0  0  0  0  0  0  0  0  0
  -15.9423   -9.6603    1.0474 C   0  0  0  0  0  0  0  0  0  0  0  0
  -15.2266   -8.6025    0.4214 C   0  0  0  0  0  0  0  0  0  0  0  0
  -15.7249   -7.2721    0.4769 C   0  0  0  0  0  0  0  0  0  0  0  0
  -15.0096   -6.2149   -0.1487 C   0  0  0  0  0  0  0  0  0  0  0  0
  -15.5071   -4.8826   -0.0940 C   0  0  0  0  0  0  0  0  0  0  0  0
  -13.9187  -14.9594    0.8029 C   0  0  0  0  0  0  0  0  0  0  0  0
  -14.6141  -16.0238    1.4179 C   0  0  0  0  0  0  0  0  0  0  0  0
  -14.0792  -17.3305    1.3360 C   0  0  0  0  0  0  0  0  0  0  0  0
  -12.9131  -17.5393    0.6716 O   0  0  0  0  0  0  0  0  0  0  0  0
  -12.2050  -16.5469    0.0622 C   0  0  0  0  0  0  0  0  0  0  0  0
  -12.7049  -15.2219    0.1197 C   0  0  0  0  0  0  0  0  0  0  0  0
  -11.9963  -14.1709   -0.5008 C   0  0  0  0  0  0  0  0  0  0  0  0
  -12.5058  -12.8488   -0.4370 C   0  0  0  0  0  0  0  0  0  0  0  0
  -13.7233  -12.5808    0.2474 C   0  0  0  0  0  0  0  0  0  0  0  0
  -14.4368  -13.6376    0.8720 C   0  0  0  0  0  0  0  0  0  0  0  0
  -15.8144  -15.7511    2.0912 C   0  0  0  0  0  0  0  0  0  0  0  0
  -14.2275  -11.2563    0.3076 C   0  0  0  0  0  0  0  0  0  0  0  0
  -13.5107  -10.2020   -0.3184 C   0  0  0  0  0  0  0  0  0  0  0  0
  -14.0112   -8.8746   -0.2610 C   0  0  0  0  0  0  0  0  0  0  0  0
  -13.2948   -7.8204   -0.8868 C   0  0  0  0  0  0  0  0  0  0  0  0
  -13.7943   -6.4911   -0.8304 C   0  0  0  0  0  0  0  0  0  0  0  0
  -11.7904  -11.7985   -1.0615 C   0  0  0  0  0  0  0  0  0  0  0  0
  -12.2945  -10.4739   -1.0014 C   0  0  0  0  0  0  0  0  0  0  0  0
  -11.5781   -9.4230   -1.6266 C   0  0  0  0  0  0  0  0  0  0  0  0
  -12.0793   -8.0964   -1.5686 C   0  0  0  0  0  0  0  0  0  0  0  0
  -10.9993  -16.8407   -0.6104 C   0  0  0  0  0  0  0  0  0  0  0  0
  -10.2855  -15.7852   -1.2349 C   0  0  0  0  0  0  0  0  0  0  0  0
  -10.7837  -14.4547   -1.1794 C   0  0  0  0  0  0  0  0  0  0  0  0
  -10.0717  -13.4029   -1.8021 C   0  0  0  0  0  0  0  0  0  0  0  0
  -10.5753  -12.0764   -1.7427 C   0  0  0  0  0  0  0  0  0  0  0  0
   -9.8603  -11.0269   -2.3667 C   0  0  0  0  0  0  0  0  0  0  0  0
  -10.3631   -9.7014   -2.3076 C   0  0  0  0  0  0  0  0  0  0  0  0
  -18.2168   -0.6087    0.7526 C   0  0  0  0  0  0  0  0  0  0  0  0
  -16.5035   -2.2151    0.0156 C   0  0  0  0  0  0  0  0  0  0  0  0
  -17.0003   -0.8824    0.0698 C   0  0  0  0  0  0  0  0  0  0  0  0
  -16.2821    0.1745   -0.5576 C   0  0  0  0  0  0  0  0  0  0  0  0
  -16.7801    1.5065   -0.5025 C   0  0  0  0  0  0  0  0  0  0  0  0
  -17.9981    1.7795    0.1813 C   0  0  0  0  0  0  0  0  0  0  0  0
  -18.7153    0.7223    0.8082 C   0  0  0  0  0  0  0  0  0  0  0  0
  -19.9323    0.9953    1.4914 C   0  0  0  0  0  0  0  0  0  0  0  0
  -20.6498   -0.0611    2.1182 C   0  0  0  0  0  0  0  0  0  0  0  0
  -18.4988    3.1097    0.2383 C   0  0  0  0  0  0  0  0  0  0  0  0
  -19.7164    3.3820    0.9221 C   0  0  0  0  0  0  0  0  0  0  0  0
  -20.4321    2.3248    1.5480 C   0  0  0  0  0  0  0  0  0  0  0  0
  -19.5094    5.7714    0.3576 C   0  0  0  0  0  0  0  0  0  0  0  0
  -20.2200    4.7114    0.9810 C   0  0  0  0  0  0  0  0  0  0  0  0
  -17.7820    4.1675   -0.3883 C   0  0  0  0  0  0  0  0  0  0  0  0
  -18.2893    5.4970   -0.3272 C   0  0  0  0  0  0  0  0  0  0  0  0
  -17.5751    6.5550   -0.9524 C   0  0  0  0  0  0  0  0  0  0  0  0
  -18.1023    7.8804   -0.8785 C   0  0  0  0  0  0  0  0  0  0  0  0
  -19.3192    8.1615   -0.1968 C   0  0  0  0  0  0  0  0  0  0  0  0
  -20.0238    7.0999    0.4232 C   0  0  0  0  0  0  0  0  0  0  0  0
  -16.0602    2.5626   -1.1308 C   0  0  0  0  0  0  0  0  0  0  0  0
  -16.5615    3.8954   -1.0739 C   0  0  0  0  0  0  0  0  0  0  0  0
  -15.8418    4.9531   -1.7023 C   0  0  0  0  0  0  0  0  0  0  0  0
  -16.3477    6.2885   -1.6431 C   0  0  0  0  0  0  0  0  0  0  0  0
  -14.7911   -3.8259   -0.7200 C   0  0  0  0  0  0  0  0  0  0  0  0
  -15.2882   -2.4928   -0.6658 C   0  0  0  0  0  0  0  0  0  0  0  0
  -14.5711   -1.4367   -1.2923 C   0  0  0  0  0  0  0  0  0  0  0  0
  -15.0651   -0.1028   -1.2400 C   0  0  0  0  0  0  0  0  0  0  0  0
  -14.3441    0.9519   -1.8687 C   0  0  0  0  0  0  0  0  0  0  0  0
  -14.8407    2.2846   -1.8146 C   0  0  0  0  0  0  0  0  0  0  0  0
  -14.1160    3.3359   -2.4448 C   0  0  0  0  0  0  0  0  0  0  0  0
  -14.6190    4.6673   -2.3867 C   0  0  0  0  0  0  0  0  0  0  0  0
  -13.0776   -5.4373   -1.4562 C   0  0  0  0  0  0  0  0  0  0  0  0
  -11.3624   -7.0454   -2.1941 C   0  0  0  0  0  0  0  0  0  0  0  0
  -11.8625   -5.7172   -2.1370 C   0  0  0  0  0  0  0  0  0  0  0  0
  -11.1456   -4.6666   -2.7625 C   0  0  0  0  0  0  0  0  0  0  0  0
  -11.6470   -3.3362   -2.7051 C   0  0  0  0  0  0  0  0  0  0  0  0
  -12.8609   -3.0509   -2.0260 C   0  0  0  0  0  0  0  0  0  0  0  0
  -13.5761   -4.1060   -1.4008 C   0  0  0  0  0  0  0  0  0  0  0  0
  -13.3566   -1.7175   -1.9726 C   0  0  0  0  0  0  0  0  0  0  0  0
  -12.6383   -0.6635   -2.5995 C   0  0  0  0  0  0  0  0  0  0  0  0
  -13.1266    0.6723   -2.5510 C   0  0  0  0  0  0  0  0  0  0  0  0
  -12.3988    1.7226   -3.1829 C   0  0  0  0  0  0  0  0  0  0  0  0
  -12.8934    3.0540   -3.1298 C   0  0  0  0  0  0  0  0  0  0  0  0
  -10.9322   -2.2854   -3.3293 C   0  0  0  0  0  0  0  0  0  0  0  0
  -11.4259   -0.9500   -3.2774 C   0  0  0  0  0  0  0  0  0  0  0  0
  -10.7085    0.1026   -3.9035 C   0  0  0  0  0  0  0  0  0  0  0  0
  -11.1799    1.4433   -3.8661 C   0  0  0  0  0  0  0  0  0  0  0  0
   -9.6471   -8.6525   -2.9322 C   0  0  0  0  0  0  0  0  0  0  0  0
  -10.1473   -7.3254   -2.8749 C   0  0  0  0  0  0  0  0  0  0  0  0
   -9.4286   -6.2774   -3.5009 C   0  0  0  0  0  0  0  0  0  0  0  0
   -9.9302   -4.9517   -3.4426 C   0  0  0  0  0  0  0  0  0  0  0  0
   -9.2120   -3.9079   -4.0675 C   0  0  0  0  0  0  0  0  0  0  0  0
   -9.7202   -2.5808   -4.0054 C   0  0  0  0  0  0  0  0  0  0  0  0
   -9.0092   -1.5343   -4.6265 C   0  0  0  0  0  0  0  0  0  0  0  0
   -9.5045   -0.1989   -4.5737 C   0  0  0  0  0  0  0  0  0  0  0  0
  -23.3631    4.1926    2.9708 C   0  0  0  0  0  0  0  0  0  0  0  0
  -24.0800    3.1399    3.5966 C   0  0  0  0  0  0  0  0  0  0  0  0
  -23.5839    1.8107    3.5422 C   0  0  0  0  0  0  0  0  0  0  0  0
  -22.3668    1.5399    2.8585 C   0  0  0  0  0  0  0  0  0  0  0  0
  -21.6487    2.5954    2.2314 C   0  0  0  0  0  0  0  0  0  0  0  0
  -22.1485    3.9237    2.2883 C   0  0  0  0  0  0  0  0  0  0  0  0
  -21.4367    4.9832    1.6643 C   0  0  0  0  0  0  0  0  0  0  0  0
  -21.9439    6.3113    1.7255 C   0  0  0  0  0  0  0  0  0  0  0  0
  -23.1580    6.5804    2.4078 C   0  0  0  0  0  0  0  0  0  0  0  0
  -23.8619    5.5187    3.0274 C   0  0  0  0  0  0  0  0  0  0  0  0
  -25.0731    5.7883    3.7078 C   0  0  0  0  0  0  0  0  0  0  0  0
  -25.7958    4.7479    4.3348 C   0  0  0  0  0  0  0  0  0  0  0  0
  -25.2940    3.4201    4.2767 C   0  0  0  0  0  0  0  0  0  0  0  0
  -23.6726    7.9047    2.4742 C   0  0  0  0  0  0  0  0  0  0  0  0
  -24.8889    8.1649    3.1594 C   0  0  0  0  0  0  0  0  0  0  0  0
  -25.5816    7.1050    3.7719 C   0  0  0  0  0  0  0  0  0  0  0  0
  -24.7177   10.5456    2.6182 C   0  0  0  0  0  0  0  0  0  0  0  0
  -25.3969    9.4769    3.2242 C   0  0  0  0  0  0  0  0  0  0  0  0
  -22.9742    8.9730    1.8567 C   0  0  0  0  0  0  0  0  0  0  0  0
  -23.4963   10.2990    1.9274 C   0  0  0  0  0  0  0  0  0  0  0  0
  -22.7981   11.3709    1.3093 C   0  0  0  0  0  0  0  0  0  0  0  0
  -23.3757   12.6658    1.4191 C   0  0  0  0  0  0  0  0  0  0  0  0
  -24.5409   12.8655    2.0847 O   0  0  0  0  0  0  0  0  0  0  0  0
  -25.2269   11.8617    2.6828 C   0  0  0  0  0  0  0  0  0  0  0  0
  -21.2409    7.3749    1.1062 C   0  0  0  0  0  0  0  0  0  0  0  0
  -21.7575    8.7021    1.1732 C   0  0  0  0  0  0  0  0  0  0  0  0
  -21.0560    9.7659    0.5547 C   0  0  0  0  0  0  0  0  0  0  0  0
  -21.5806   11.0947    0.6264 C   0  0  0  0  0  0  0  0  0  0  0  0
  -21.8670    0.2111    2.8018 C   0  0  0  0  0  0  0  0  0  0  0  0
  -19.8327    9.4920   -0.1322 C   0  0  0  0  0  0  0  0  0  0  0  0
  -24.2088   -5.3464    5.2358 C   0  0  0  0  0  0  0  0  0  0  0  0
  -24.9193   -6.4024    5.8584 C   0  0  0  0  0  0  0  0  0  0  0  0
  -24.4149   -7.7238    5.7976 C   0  0  0  0  0  0  0  0  0  0  0  0
  -23.2080   -8.0109    5.1230 C   0  0  0  0  0  0  0  0  0  0  0  0
  -22.4970   -6.9541    4.5000 C   0  0  0  0  0  0  0  0  0  0  0  0
  -22.9958   -5.6229    4.5557 C   0  0  0  0  0  0  0  0  0  0  0  0
  -22.2874   -4.5630    3.9337 C   0  0  0  0  0  0  0  0  0  0  0  0
  -22.7919   -3.2319    3.9928 C   0  0  0  0  0  0  0  0  0  0  0  0
  -24.0084   -2.9547    4.6749 C   0  0  0  0  0  0  0  0  0  0  0  0
  -24.7137   -4.0196    5.2960 C   0  0  0  0  0  0  0  0  0  0  0  0
  -25.9289   -3.7610    5.9808 C   0  0  0  0  0  0  0  0  0  0  0  0
  -26.6403   -4.8152    6.6036 C   0  0  0  0  0  0  0  0  0  0  0  0
  -26.1311   -6.1298    6.5386 C   0  0  0  0  0  0  0  0  0  0  0  0
  -24.5217   -1.6243    4.7395 C   0  0  0  0  0  0  0  0  0  0  0  0
  -25.7442   -1.3501    5.4259 C   0  0  0  0  0  0  0  0  0  0  0  0
  -26.4137   -2.4435    6.0306 C   0  0  0  0  0  0  0  0  0  0  0  0
  -25.5222    1.0336    4.8534 C   0  0  0  0  0  0  0  0  0  0  0  0
  -26.2519   -0.0147    5.4861 C   0  0  0  0  0  0  0  0  0  0  0  0
  -23.8031   -0.5705    4.1125 C   0  0  0  0  0  0  0  0  0  0  0  0
  -24.3045    0.7576    4.1703 C   0  0  0  0  0  0  0  0  0  0  0  0
  -26.0101    2.3700    4.9016 C   0  0  0  0  0  0  0  0  0  0  0  0
  -22.0805   -2.1734    3.3692 C   0  0  0  0  0  0  0  0  0  0  0  0
  -22.5847   -0.8442    3.4285 C   0  0  0  0  0  0  0  0  0  0  0  0
  -22.7235   -9.3460    5.0766 C   0  0  0  0  0  0  0  0  0  0  0  0
  -26.2917   12.1696    3.2679 O   0  0  0  0  0  0  0  0  0  0  0  0
  -27.2221    2.6668    5.5774 C   0  0  0  0  0  0  0  0  0  0  0  0
  -27.7214    3.9900    5.6348 C   0  0  0  0  0  0  0  0  0  0  0  0
  -27.0105    5.0327    5.0145 C   0  0  0  0  0  0  0  0  0  0  0  0
  -27.4724    6.3627    5.0482 C   0  0  0  0  0  0  0  0  0  0  0  0
  -26.7523    7.3358    4.4351 O   0  0  0  0  0  0  0  0  0  0  0  0
  -27.4630    0.3313    6.1523 C   0  0  0  0  0  0  0  0  0  0  0  0
  -27.9601    1.6443    6.2104 C   0  0  0  0  0  0  0  0  0  0  0  0
  -29.1686    1.9449    6.8834 C   0  0  0  0  0  0  0  0  0  0  0  0
  -29.6268    3.2700    6.9157 C   0  0  0  0  0  0  0  0  0  0  0  0
  -28.8941    4.2364    6.2963 O   0  0  0  0  0  0  0  0  0  0  0  0
  -19.1225   10.5566   -0.7561 C   0  0  0  0  0  0  0  0  0  0  0  0
  -19.6656   11.8607   -0.6687 C   0  0  0  0  0  0  0  0  0  0  0  0
  -20.8520   12.1213   -0.0017 C   0  0  0  0  0  0  0  0  0  0  0  0
  -17.4090    8.9468   -1.4926 C   0  0  0  0  0  0  0  0  0  0  0  0
  -17.9076   10.2907   -1.4395 C   0  0  0  0  0  0  0  0  0  0  0  0
  -15.6272    7.3503   -2.2727 C   0  0  0  0  0  0  0  0  0  0  0  0
  -16.1977    8.6642   -2.1706 C   0  0  0  0  0  0  0  0  0  0  0  0
  -13.8873    5.7085   -3.0193 C   0  0  0  0  0  0  0  0  0  0  0  0
  -14.3955    7.0365   -2.9573 C   0  0  0  0  0  0  0  0  0  0  0  0
  -15.6065    9.7531   -2.7274 O   0  0  0  0  0  0  0  0  0  0  0  0
  -15.9938   11.0413   -2.7310 C   0  0  0  0  0  0  0  0  0  0  0  0
  -17.1739   11.3305   -2.0729 C   0  0  0  0  0  0  0  0  0  0  0  0
  -14.6279  -18.3314    1.8509 O   0  0  0  0  0  0  0  0  0  0  0  0
  -12.6581    5.4231   -3.7076 C   0  0  0  0  0  0  0  0  0  0  0  0
  -12.1582    4.0960   -3.7646 C   0  0  0  0  0  0  0  0  0  0  0  0
  -10.9337    3.8201   -4.4519 C   0  0  0  0  0  0  0  0  0  0  0  0
  -10.4363    2.4863   -4.5062 C   0  0  0  0  0  0  0  0  0  0  0  0
  -10.4922  -18.1593   -0.6734 C   0  0  0  0  0  0  0  0  0  0  0  0
   -9.2877  -18.4481   -1.3462 C   0  0  0  0  0  0  0  0  0  0  0  0
   -8.5760  -17.3911   -1.9697 C   0  0  0  0  0  0  0  0  0  0  0  0
   -9.0723  -16.0628   -1.9150 C   0  0  0  0  0  0  0  0  0  0  0  0
   -8.3569  -15.0119   -2.5395 C   0  0  0  0  0  0  0  0  0  0  0  0
   -8.8589  -13.6853   -2.4811 C   0  0  0  0  0  0  0  0  0  0  0  0
   -8.1467  -12.6347   -3.1037 C   0  0  0  0  0  0  0  0  0  0  0  0
   -8.6462  -11.3083   -3.0467 C   0  0  0  0  0  0  0  0  0  0  0  0
   -7.9274  -10.2624   -3.6724 C   0  0  0  0  0  0  0  0  0  0  0  0
   -8.4335   -8.9355   -3.6115 C   0  0  0  0  0  0  0  0  0  0  0  0
   -8.7817  -19.7669   -1.4085 C   0  0  0  0  0  0  0  0  0  0  0  0
   -7.5754  -20.0513   -2.0832 C   0  0  0  0  0  0  0  0  0  0  0  0
   -6.8706  -18.9885   -2.7035 C   0  0  0  0  0  0  0  0  0  0  0  0
   -7.3638  -17.6624   -2.6503 C   0  0  0  0  0  0  0  0  0  0  0  0
   -6.6418  -16.6166   -3.2780 C   0  0  0  0  0  0  0  0  0  0  0  0
   -7.1425  -15.2901   -3.2203 C   0  0  0  0  0  0  0  0  0  0  0  0
   -6.4261  -14.2398   -3.8453 C   0  0  0  0  0  0  0  0  0  0  0  0
   -6.9350  -12.9165   -3.7821 C   0  0  0  0  0  0  0  0  0  0  0  0
   -6.2169  -11.8725   -4.4070 C   0  0  0  0  0  0  0  0  0  0  0  0
   -6.7107  -10.5470   -4.3533 C   0  0  0  0  0  0  0  0  0  0  0  0
   -7.0622  -21.3654   -2.1507 C   0  0  0  0  0  0  0  0  0  0  0  0
   -5.8569  -21.5973   -2.8345 C   0  0  0  0  0  0  0  0  0  0  0  0
   -5.2011  -20.5528   -3.4219 O   0  0  0  0  0  0  0  0  0  0  0  0
   -5.6609  -19.2666   -3.3815 C   0  0  0  0  0  0  0  0  0  0  0  0
   -4.9456  -18.2284   -4.0036 C   0  0  0  0  0  0  0  0  0  0  0  0
   -5.4255  -16.8993   -3.9590 C   0  0  0  0  0  0  0  0  0  0  0  0
   -4.7201  -15.8447   -4.5782 C   0  0  0  0  0  0  0  0  0  0  0  0
   -5.2119  -14.5210   -4.5253 C   0  0  0  0  0  0  0  0  0  0  0  0
   -4.5331  -13.4465   -5.1322 C   0  0  0  0  0  0  0  0  0  0  0  0
   -5.0501  -12.1850   -5.0528 O   0  0  0  0  0  0  0  0  0  0  0  0
  -26.8567   -7.1654    7.1664 C   0  0  0  0  0  0  0  0  0  0  0  0
  -28.0802   -6.9154    7.8579 C   0  0  0  0  0  0  0  0  0  0  0  0
  -28.5457   -5.5831    7.8932 C   0  0  0  0  0  0  0  0  0  0  0  0
  -27.8193   -4.6031    7.2751 O   0  0  0  0  0  0  0  0  0  0  0  0
  -25.1195   -8.7737    6.4154 C   0  0  0  0  0  0  0  0  0  0  0  0
  -26.3661   -8.5369    7.1232 C   0  0  0  0  0  0  0  0  0  0  0  0
   -9.2102    2.2032   -5.1931 C   0  0  0  0  0  0  0  0  0  0  0  0
   -8.4952    3.2861   -5.8233 C   0  0  0  0  0  0  0  0  0  0  0  0
   -8.9855    4.6186   -5.7730 C   0  0  0  0  0  0  0  0  0  0  0  0
  -10.2055    4.8746   -5.0848 C   0  0  0  0  0  0  0  0  0  0  0  0
  -11.9174    6.4653   -4.3458 C   0  0  0  0  0  0  0  0  0  0  0  0
  -10.6991    6.2036   -5.0319 C   0  0  0  0  0  0  0  0  0  0  0  0
  -13.5987    7.9989   -3.6147 C   0  0  0  0  0  0  0  0  0  0  0  0
  -12.3973    7.7927   -4.3008 C   0  0  0  0  0  0  0  0  0  0  0  0
   -7.2782    3.1298   -6.5280 C   0  0  0  0  0  0  0  0  0  0  0  0
   -6.5210    4.1241   -7.1674 C   0  0  0  0  0  0  0  0  0  0  0  0
   -7.0350    5.4376   -7.0993 C   0  0  0  0  0  0  0  0  0  0  0  0
   -8.2604    5.6854   -6.4064 C   0  0  0  0  0  0  0  0  0  0  0  0
   -8.7542    7.0116   -6.3528 C   0  0  0  0  0  0  0  0  0  0  0  0
   -9.9774    7.2636   -5.6619 C   0  0  0  0  0  0  0  0  0  0  0  0
  -10.4800    8.5929   -5.6036 C   0  0  0  0  0  0  0  0  0  0  0  0
  -11.6943    8.8714   -4.9230 C   0  0  0  0  0  0  0  0  0  0  0  0
   -9.7594    9.6451   -6.2316 C   0  0  0  0  0  0  0  0  0  0  0  0
  -10.2489   10.9675   -6.1799 C   0  0  0  0  0  0  0  0  0  0  0  0
  -11.4062   11.2109   -5.5272 O   0  0  0  0  0  0  0  0  0  0  0  0
  -12.1195   10.2334   -4.9174 C   0  0  0  0  0  0  0  0  0  0  0  0
   -8.0271    8.0699   -6.9858 C   0  0  0  0  0  0  0  0  0  0  0  0
   -8.5638    9.3703   -6.9016 C   0  0  0  0  0  0  0  0  0  0  0  0
   -6.3093    6.4870   -7.7298 C   0  0  0  0  0  0  0  0  0  0  0  0
   -6.8034    7.8191   -7.6772 C   0  0  0  0  0  0  0  0  0  0  0  0
   -9.6722   11.9478   -6.7079 O   0  0  0  0  0  0  0  0  0  0  0  0
   -7.7210   -7.8846   -4.2343 C   0  0  0  0  0  0  0  0  0  0  0  0
   -8.2127   -6.5565   -4.1824 C   0  0  0  0  0  0  0  0  0  0  0  0
   -7.4819   -5.5160   -4.8143 C   0  0  0  0  0  0  0  0  0  0  0  0
   -7.9942   -4.1964   -4.7484 C   0  0  0  0  0  0  0  0  0  0  0  0
   -7.2772   -3.1573   -5.3717 C   0  0  0  0  0  0  0  0  0  0  0  0
   -7.8007   -1.8455   -5.2976 C   0  0  0  0  0  0  0  0  0  0  0  0
   -6.0174   -9.4878   -4.9661 C   0  0  0  0  0  0  0  0  0  0  0  0
   -6.5122   -8.1697   -4.9104 C   0  0  0  0  0  0  0  0  0  0  0  0
   -5.8041   -7.1297   -5.5286 C   0  0  0  0  0  0  0  0  0  0  0  0
   -6.2581   -5.7922   -5.5010 C   0  0  0  0  0  0  0  0  0  0  0  0
   -5.5350   -4.7390   -6.1307 C   0  0  0  0  0  0  0  0  0  0  0  0
   -6.0569   -3.4186   -6.0591 C   0  0  0  0  0  0  0  0  0  0  0  0
   -4.3114   -4.9057   -6.8375 C   0  0  0  0  0  0  0  0  0  0  0  0
   -3.6776   -3.8501   -7.4137 O   0  0  0  0  0  0  0  0  0  0  0  0
   -4.1623   -2.5850   -7.3544 C   0  0  0  0  0  0  0  0  0  0  0  0
   -5.3684   -2.3388   -6.6728 C   0  0  0  0  0  0  0  0  0  0  0  0
   -5.8981   -1.0425   -6.5921 C   0  0  0  0  0  0  0  0  0  0  0  0
   -7.1010   -0.8066   -5.9105 C   0  0  0  0  0  0  0  0  0  0  0  0
   -7.6364    0.4277   -5.8150 O   0  0  0  0  0  0  0  0  0  0  0  0
   -8.7796    0.8369   -5.2012 C   0  0  0  0  0  0  0  0  0  0  0  0
  -24.6611  -10.1196    6.3868 C   0  0  0  0  0  0  0  0  0  0  0  0
  -23.4483  -10.3973    5.7069 C   0  0  0  0  0  0  0  0  0  0  0  0
  -22.9635  -11.7296    5.6599 C   0  0  0  0  0  0  0  0  0  0  0  0
  -21.7485  -12.0088    4.9790 C   0  0  0  0  0  0  0  0  0  0  0  0
  -21.2617  -13.3429    4.9311 C   0  0  0  0  0  0  0  0  0  0  0  0
  -20.0463  -13.6201    4.2496 C   0  0  0  0  0  0  0  0  0  0  0  0
  -19.5650  -14.9571    4.2055 C   0  0  0  0  0  0  0  0  0  0  0  0
  -18.3541  -15.1743    3.5157 C   0  0  0  0  0  0  0  0  0  0  0  0
  -28.8396   -7.9373    8.5036 C   0  0  0  0  0  0  0  0  0  0  0  0
  -30.0402   -7.6176    9.1684 C   0  0  0  0  0  0  0  0  0  0  0  0
  -30.4476   -6.3107    9.1734 O   0  0  0  0  0  0  0  0  0  0  0  0
  -29.7486   -5.2998    8.5661 C   0  0  0  0  0  0  0  0  0  0  0  0
  -28.3451   -9.3088    8.4580 C   0  0  0  0  0  0  0  0  0  0  0  0
  -27.0902   -9.6501    7.7644 C   0  0  0  0  0  0  0  0  0  0  0  0
  -26.6136  -10.9492    7.7162 C   0  0  0  0  0  0  0  0  0  0  0  0
  -25.3925  -11.1788    7.0226 C   0  0  0  0  0  0  0  0  0  0  0  0
  -24.9084  -12.5061    6.9750 C   0  0  0  0  0  0  0  0  0  0  0  0
  -23.6913  -12.7777    6.2914 C   0  0  0  0  0  0  0  0  0  0  0  0
  -23.2037  -14.1084    6.2424 C   0  0  0  0  0  0  0  0  0  0  0  0
  -21.9881  -14.3938    5.5623 C   0  0  0  0  0  0  0  0  0  0  0  0
  -21.5063  -15.7323    5.5183 C   0  0  0  0  0  0  0  0  0  0  0  0
  -20.2887  -16.0196    4.8373 C   0  0  0  0  0  0  0  0  0  0  0  0
  -19.8771  -17.3812    4.8397 C   0  0  0  0  0  0  0  0  0  0  0  0
  -20.6072  -18.3455    5.4572 O   0  0  0  0  0  0  0  0  0  0  0  0
  -21.7670  -18.0942    6.1100 C   0  0  0  0  0  0  0  0  0  0  0  0
  -22.2510  -16.7699    6.1580 C   0  0  0  0  0  0  0  0  0  0  0  0
  -23.4523  -16.4703    6.8269 C   0  0  0  0  0  0  0  0  0  0  0  0
  -23.9354  -15.1505    6.8752 C   0  0  0  0  0  0  0  0  0  0  0  0
  -25.1410  -14.8661    7.5495 C   0  0  0  0  0  0  0  0  0  0  0  0
  -25.6420  -13.5512    7.6094 C   0  0  0  0  0  0  0  0  0  0  0  0
  -26.8564  -13.2715    8.2899 C   0  0  0  0  0  0  0  0  0  0  0  0
  -27.3765  -11.9608    8.3622 C   0  0  0  0  0  0  0  0  0  0  0  0
  -28.6017  -11.6524    9.0439 C   0  0  0  0  0  0  0  0  0  0  0  0
  -29.1380  -10.3345    9.1246 C   0  0  0  0  0  0  0  0  0  0  0  0
  -30.3360   -9.9788    9.7812 C   0  0  0  0  0  0  0  0  0  0  0  0
  -30.7776   -8.6382    9.8006 C   0  0  0  0  0  0  0  0  0  0  0  0
  -22.3483  -19.0705    6.6400 O   0  0  0  0  0  0  0  0  0  0  0  0
   -5.0860    6.2087   -8.4159 C   0  0  0  0  0  0  0  0  0  0  0  0
   -4.3526    7.2494   -9.0494 C   0  0  0  0  0  0  0  0  0  0  0  0
   -4.8411    8.5598   -8.9961 C   0  0  0  0  0  0  0  0  0  0  0  0
   -6.0363    8.8308   -8.3257 C   0  0  0  0  0  0  0  0  0  0  0  0
   -5.2949    3.8355   -7.8533 C   0  0  0  0  0  0  0  0  0  0  0  0
   -4.5772    4.8874   -8.4794 C   0  0  0  0  0  0  0  0  0  0  0  0
   -4.7248    2.5380   -7.9581 C   0  0  0  0  0  0  0  0  0  0  0  0
   -3.5301    2.2685   -8.6286 C   0  0  0  0  0  0  0  0  0  0  0  0
   -2.8380    3.3132   -9.2379 C   0  0  0  0  0  0  0  0  0  0  0  0
   -3.3521    4.6237   -9.1693 C   0  0  0  0  0  0  0  0  0  0  0  0
   -2.6485    5.6727   -9.7863 C   0  0  0  0  0  0  0  0  0  0  0  0
   -3.1455    6.9789   -9.7272 C   0  0  0  0  0  0  0  0  0  0  0  0
  -16.2657  -16.5563    2.5113 H   0  0  0  0  0  0  0  0  0  0  0  0
  -26.2735    9.6632    3.7182 H   0  0  0  0  0  0  0  0  0  0  0  0
  -22.9610   13.5017    1.0154 H   0  0  0  0  0  0  0  0  0  0  0  0
  -27.2850   -2.3042    6.5300 H   0  0  0  0  0  0  0  0  0  0  0  0
  -28.3391    6.6238    5.5224 H   0  0  0  0  0  0  0  0  0  0  0  0
  -28.0272   -0.3694    6.6213 H   0  0  0  0  0  0  0  0  0  0  0  0
  -29.7166    1.2149    7.3480 H   0  0  0  0  0  0  0  0  0  0  0  0
  -30.4972    3.5167    7.3949 H   0  0  0  0  0  0  0  0  0  0  0  0
  -19.2281   12.6779   -1.0829 H   0  0  0  0  0  0  0  0  0  0  0  0
  -21.1528   13.0924    0.0009 H   0  0  0  0  0  0  0  0  0  0  0  0
  -15.4356   11.7606   -3.1998 H   0  0  0  0  0  0  0  0  0  0  0  0
  -17.4491   12.3079   -2.0869 H   0  0  0  0  0  0  0  0  0  0  0  0
  -11.0043  -18.9231   -0.2242 H   0  0  0  0  0  0  0  0  0  0  0  0
   -9.2958  -20.5295   -0.9583 H   0  0  0  0  0  0  0  0  0  0  0  0
   -7.5540  -22.1490   -1.7101 H   0  0  0  0  0  0  0  0  0  0  0  0
   -5.4669  -22.5407   -2.8959 H   0  0  0  0  0  0  0  0  0  0  0  0
   -4.0727  -18.4513   -4.4887 H   0  0  0  0  0  0  0  0  0  0  0  0
   -3.8430  -16.0432   -5.0703 H   0  0  0  0  0  0  0  0  0  0  0  0
   -3.6543  -13.5935   -5.6348 H   0  0  0  0  0  0  0  0  0  0  0  0
  -13.8758    8.9265   -3.6183 H   0  0  0  0  0  0  0  0  0  0  0  0
   -6.8873    2.2457   -6.6010 H   0  0  0  0  0  0  0  0  0  0  0  0
  -12.9665   10.5668   -4.4683 H   0  0  0  0  0  0  0  0  0  0  0  0
   -8.0930   10.1598   -7.3306 H   0  0  0  0  0  0  0  0  0  0  0  0
   -5.1408   -9.6750   -5.4599 H   0  0  0  0  0  0  0  0  0  0  0  0
   -4.9402   -7.3773   -6.0037 H   0  0  0  0  0  0  0  0  0  0  0  0
   -3.8491   -5.8047   -6.9507 H   0  0  0  0  0  0  0  0  0  0  0  0
   -3.6356   -1.8365   -7.8096 H   0  0  0  0  0  0  0  0  0  0  0  0
   -5.4032   -0.2804   -7.0306 H   0  0  0  0  0  0  0  0  0  0  0  0
  -18.0148  -16.1148    3.4843 H   0  0  0  0  0  0  0  0  0  0  0  0
  -30.1046   -4.3426    8.6045 H   0  0  0  0  0  0  0  0  0  0  0  0
  -19.0283  -17.7113    4.3889 H   0  0  0  0  0  0  0  0  0  0  0  0
  -23.9803  -17.2216    7.2834 H   0  0  0  0  0  0  0  0  0  0  0  0
  -25.6601  -15.6256    8.0021 H   0  0  0  0  0  0  0  0  0  0  0  0
  -27.3728  -14.0328    8.7412 H   0  0  0  0  0  0  0  0  0  0  0  0
  -29.1206  -12.4105    9.4961 H   0  0  0  0  0  0  0  0  0  0  0  0
  -30.8955  -10.6944   10.2501 H   0  0  0  0  0  0  0  0  0  0  0  0
  -31.6483   -8.4025   10.2820 H   0  0  0  0  0  0  0  0  0  0  0  0
   -4.3331    9.3300   -9.4441 H   0  0  0  0  0  0  0  0  0  0  0  0
   -6.3098    9.8078   -8.3406 H   0  0  0  0  0  0  0  0  0  0  0  0
   -5.1565    1.7358   -7.5503 H   0  0  0  0  0  0  0  0  0  0  0  0
   -3.1698    1.3118   -8.6697 H   0  0  0  0  0  0  0  0  0  0  0  0
   -1.9636    3.1035   -9.7264 H   0  0  0  0  0  0  0  0  0  0  0  0
   -1.7710    5.4937  -10.2823 H   0  0  0  0  0  0  0  0  0  0  0  0
   -2.6167    7.7275  -10.1836 H   0  0  0  0  0  0  0  0  0  0  0  0
  1  2  1  0  0  0  0
  4  5  1  0  0  0  0
  5  6  1  0  0  0  0
  9 10  2  0  0  0  0
  1  6  2  0  0  0  0
  1 10  1  0  0  0  0
 14 15  2  0  0  0  0
 11 10  1  0  0  0  0
 21 22  2  0  0  0  0
 22 23  1  0  0  0  0
 23 24  2  0  0  0  0
 17 20  1  0  0  0  0
 20 21  1  0  0  0  0
 27 28  2  0  0  0  0
 19 26  1  0  0  0  0
 19 14  1  0  0  0  0
 14  9  1  0  0  0  0
  9  8  1  0  0  0  0
 28 21  1  0  0  0  0
 19 20  2  0  0  0  0
 29 30  1  0  0  0  0
 30 31  2  0  0  0  0
 31 32  1  0  0  0  0
 33 34  2  0  0  0  0
 32 33  1  0  0  0  0
  5 32  2  0  0  0  0
  7  6  1  0  0  0  0
 35 36  2  0  0  0  0
 37 38  2  0  0  0  0
 34 35  1  0  0  0  0
 25 36  1  0  0  0  0
 25  8  1  0  0  0  0
  7 34  1  0  0  0  0
  8  7  2  0  0  0  0
 38 27  1  0  0  0  0
 25 26  2  0  0  0  0
 27 26  1  0  0  0  0
 39 40  1  0  0  0  0
 40 41  1  0  0  0  0
 41 42  1  0  0  0  0
 42 43  1  0  0  0  0
 43 44  2  0  0  0  0
 47 48  1  0  0  0  0
 39 44  1  0  0  0  0
 39 48  2  0  0  0  0
 49 40  2  0  0  0  0
 53 54  1  0  0  0  0
 52 53  2  0  0  0  0
 51 56  2  0  0  0  0
 51 50  1  0  0  0  0
 50 47  2  0  0  0  0
 47 46  1  0  0  0  0
 58 53  1  0  0  0  0
 51 52  1  0  0  0  0
 60 61  2  0  0  0  0
 59 60  1  0  0  0  0
 43 59  1  0  0  0  0
 45 44  1  0  0  0  0
 62 63  1  0  0  0  0
 63 64  1  0  0  0  0
 61 62  1  0  0  0  0
 55 63  2  0  0  0  0
 55 46  1  0  0  0  0
 45 61  1  0  0  0  0
 46 45  2  0  0  0  0
 55 56  1  0  0  0  0
 57 56  1  0  0  0  0
 31 48  1  0  0  0  0
 30 49  1  0  0  0  0
 50 33  1  0  0  0  0
 35 52  1  0  0  0  0
 54 37  1  0  0  0  0
 37 36  1  0  0  0  0
 67 68  1  0  0  0  0
 71 72  2  0  0  0  0
 66 68  2  0  0  0  0
 66 72  1  0  0  0  0
 75 76  2  0  0  0  0
 73 72  1  0  0  0  0
 78 79  2  0  0  0  0
 84 85  2  0  0  0  0
 78 81  1  0  0  0  0
 78 85  1  0  0  0  0
 81 82  1  0  0  0  0
 79 76  1  0  0  0  0
 80 87  1  0  0  0  0
 80 75  1  0  0  0  0
 75 71  1  0  0  0  0
 71 70  1  0  0  0  0
 80 81  2  0  0  0  0
 90 91  1  0  0  0  0
 92 93  2  0  0  0  0
 91 92  1  0  0  0  0
 67 91  2  0  0  0  0
 69 68  1  0  0  0  0
 96 97  2  0  0  0  0
 93 94  1  0  0  0  0
 86 95  1  0  0  0  0
 86 70  1  0  0  0  0
 69 93  1  0  0  0  0
 70 69  2  0  0  0  0
 86 87  2  0  0  0  0
 88 87  1  0  0  0  0
 38 90  1  0  0  0  0
 66 22  1  0  0  0  0
 28 67  1  0  0  0  0
 74 23  1  0  0  0  0
 99100  2  0  0  0  0
103104  1  0  0  0  0
 98100  1  0  0  0  0
 98104  1  0  0  0  0
108109  2  0  0  0  0
107108  1  0  0  0  0
106111  1  0  0  0  0
106105  1  0  0  0  0
105103  2  0  0  0  0
103102  1  0  0  0  0
113108  1  0  0  0  0
106107  2  0  0  0  0
114115  2  0  0  0  0
116117  2  0  0  0  0
115116  1  0  0  0  0
 99115  1  0  0  0  0
101100  1  0  0  0  0
110119  1  0  0  0  0
110102  1  0  0  0  0
101117  1  0  0  0  0
102101  2  0  0  0  0
110111  2  0  0  0  0
112111  1  0  0  0  0
 98 54  2  0  0  0  0
 58 99  1  0  0  0  0
 90104  2  0  0  0  0
105 92  1  0  0  0  0
 94107  1  0  0  0  0
109 96  1  0  0  0  0
 94 95  2  0  0  0  0
 96 95  1  0  0  0  0
 58 57  2  0  0  0  0
 57 65  1  0  0  0  0
122123  2  0  0  0  0
125126  1  0  0  0  0
126127  2  0  0  0  0
130131  2  0  0  0  0
122127  1  0  0  0  0
122131  1  0  0  0  0
135136  2  0  0  0  0
136137  1  0  0  0  0
132131  1  0  0  0  0
138139  2  0  0  0  0
142143  2  0  0  0  0
143144  1  0  0  0  0
144145  1  0  0  0  0
138141  1  0  0  0  0
138145  1  0  0  0  0
141142  1  0  0  0  0
139136  1  0  0  0  0
140147  1  0  0  0  0
140135  1  0  0  0  0
135130  1  0  0  0  0
130129  1  0  0  0  0
149142  1  0  0  0  0
140141  2  0  0  0  0
128127  1  0  0  0  0
146129  1  0  0  0  0
129128  2  0  0  0  0
146147  2  0  0  0  0
148147  1  0  0  0  0
150 74  2  0  0  0  0
 74 73  1  0  0  0  0
126 77  1  0  0  0  0
 73 77  2  0  0  0  0
 77 76  1  0  0  0  0
128 79  1  0  0  0  0
146 85  1  0  0  0  0
152153  1  0  0  0  0
153154  2  0  0  0  0
155156  1  0  0  0  0
156157  2  0  0  0  0
160161  1  0  0  0  0
152157  1  0  0  0  0
152161  2  0  0  0  0
162163  1  0  0  0  0
163164  2  0  0  0  0
165166  1  0  0  0  0
166167  1  0  0  0  0
162167  2  0  0  0  0
164153  1  0  0  0  0
162161  1  0  0  0  0
168171  1  0  0  0  0
169166  2  0  0  0  0
170174  1  0  0  0  0
170165  1  0  0  0  0
165160  2  0  0  0  0
160159  1  0  0  0  0
170171  2  0  0  0  0
158157  1  0  0  0  0
173159  1  0  0  0  0
159158  2  0  0  0  0
173174  2  0  0  0  0
171124  1  0  0  0  0
124123  1  0  0  0  0
123134  1  0  0  0  0
150174  1  0  0  0  0
125124  2  0  0  0  0
150125  1  0  0  0  0
 12 11  1  0  0  0  0
156 16  1  0  0  0  0
 11 16  2  0  0  0  0
 16 15  1  0  0  0  0
158 18  1  0  0  0  0
 15 18  1  0  0  0  0
 18 17  2  0  0  0  0
173 24  1  0  0  0  0
 17 24  1  0  0  0  0
145176  2  0  0  0  0
178179  1  0  0  0  0
134172  1  0  0  0  0
134133  2  0  0  0  0
180181  1  0  0  0  0
132133  1  0  0  0  0
179180  2  0  0  0  0
133179  1  0  0  0  0
181137  1  0  0  0  0
132137  2  0  0  0  0
182183  2  0  0  0  0
172168  2  0  0  0  0
169182  1  0  0  0  0
168169  1  0  0  0  0
172177  1  0  0  0  0
184185  2  0  0  0  0
185186  1  0  0  0  0
183184  1  0  0  0  0
177183  1  0  0  0  0
186178  1  0  0  0  0
177178  2  0  0  0  0
187188  1  0  0  0  0
188189  2  0  0  0  0
149189  1  0  0  0  0
149148  2  0  0  0  0
148151  1  0  0  0  0
151 84  1  0  0  0  0
 84 83  1  0  0  0  0
191187  1  0  0  0  0
151187  2  0  0  0  0
192193  2  0  0  0  0
 83 82  2  0  0  0  0
 82 89  1  0  0  0  0
 83190  1  0  0  0  0
 89 88  2  0  0  0  0
 97194  1  0  0  0  0
 88 97  1  0  0  0  0
195192  1  0  0  0  0
 89192  1  0  0  0  0
196197  1  0  0  0  0
197198  2  0  0  0  0
191198  1  0  0  0  0
191190  2  0  0  0  0
193196  1  0  0  0  0
190193  1  0  0  0  0
 41199  2  0  0  0  0
109201  1  0  0  0  0
204205  1  0  0  0  0
205206  1  0  0  0  0
206207  2  0  0  0  0
 59204  2  0  0  0  0
 60207  1  0  0  0  0
208209  1  0  0  0  0
 62209  2  0  0  0  0
212213  2  0  0  0  0
 65 64  2  0  0  0  0
 64211  1  0  0  0  0
213114  1  0  0  0  0
 65114  1  0  0  0  0
214215  1  0  0  0  0
215216  2  0  0  0  0
216217  1  0  0  0  0
205214  2  0  0  0  0
206217  1  0  0  0  0
207208  1  0  0  0  0
208219  2  0  0  0  0
209210  1  0  0  0  0
222223  2  0  0  0  0
211210  2  0  0  0  0
210221  1  0  0  0  0
211212  1  0  0  0  0
224225  2  0  0  0  0
225226  1  0  0  0  0
226227  1  0  0  0  0
215224  1  0  0  0  0
216227  1  0  0  0  0
228229  1  0  0  0  0
227228  2  0  0  0  0
217218  2  0  0  0  0
230231  1  0  0  0  0
219218  1  0  0  0  0
229230  2  0  0  0  0
218229  1  0  0  0  0
219220  1  0  0  0  0
232233  1  0  0  0  0
221220  2  0  0  0  0
231232  2  0  0  0  0
220231  1  0  0  0  0
233222  1  0  0  0  0
221222  1  0  0  0  0
235236  1  0  0  0  0
236237  1  0  0  0  0
163237  1  0  0  0  0
164234  1  0  0  0  0
238239  2  0  0  0  0
154238  1  0  0  0  0
239234  1  0  0  0  0
240241  1  0  0  0  0
241242  1  0  0  0  0
242243  1  0  0  0  0
202243  2  0  0  0  0
203240  2  0  0  0  0
202203  1  0  0  0  0
244245  2  0  0  0  0
243245  1  0  0  0  0
202201  1  0  0  0  0
201200  2  0  0  0  0
246247  2  0  0  0  0
244247  1  0  0  0  0
244200  1  0  0  0  0
200194  1  0  0  0  0
195246  1  0  0  0  0
194195  2  0  0  0  0
248249  1  0  0  0  0
249250  2  0  0  0  0
250251  1  0  0  0  0
241248  2  0  0  0  0
242251  2  0  0  0  0
253245  1  0  0  0  0
255247  1  0  0  0  0
256257  1  0  0  0  0
257258  1  0  0  0  0
258259  1  0  0  0  0
254256  1  0  0  0  0
255259  2  0  0  0  0
255254  1  0  0  0  0
260261  1  0  0  0  0
256261  2  0  0  0  0
254253  2  0  0  0  0
252260  2  0  0  0  0
253252  1  0  0  0  0
262263  2  0  0  0  0
260263  1  0  0  0  0
252251  1  0  0  0  0
250262  1  0  0  0  0
257264  2  0  0  0  0
265266  2  0  0  0  0
267268  2  0  0  0  0
266267  1  0  0  0  0
116266  1  0  0  0  0
118117  1  0  0  0  0
118268  1  0  0  0  0
118119  2  0  0  0  0
120119  1  0  0  0  0
271272  2  0  0  0  0
223271  1  0  0  0  0
212223  1  0  0  0  0
265213  1  0  0  0  0
273274  2  0  0  0  0
272273  1  0  0  0  0
265272  1  0  0  0  0
274275  1  0  0  0  0
267274  1  0  0  0  0
269268  1  0  0  0  0
277278  1  0  0  0  0
278279  1  0  0  0  0
279280  2  0  0  0  0
275277  2  0  0  0  0
276280  1  0  0  0  0
276275  1  0  0  0  0
281282  2  0  0  0  0
270269  1  0  0  0  0
269276  2  0  0  0  0
280281  1  0  0  0  0
283284  1  0  0  0  0
120270  2  0  0  0  0
282283  1  0  0  0  0
270282  1  0  0  0  0
120121  1  0  0  0  0
284240  1  0  0  0  0
113112  2  0  0  0  0
121284  2  0  0  0  0
112121  1  0  0  0  0
113203  1  0  0  0  0
285286  2  0  0  0  0
238285  1  0  0  0  0
154155  1  0  0  0  0
175155  2  0  0  0  0
287288  2  0  0  0  0
286287  1  0  0  0  0
175286  1  0  0  0  0
175 12  1  0  0  0  0
 13 12  2  0  0  0  0
 13288  1  0  0  0  0
 13  2  1  0  0  0  0
  3  2  2  0  0  0  0
291292  2  0  0  0  0
  3290  1  0  0  0  0
292 29  1  0  0  0  0
  3  4  1  0  0  0  0
 29  4  2  0  0  0  0
293294  2  0  0  0  0
294295  1  0  0  0  0
295296  1  0  0  0  0
235293  1  0  0  0  0
236296  2  0  0  0  0
297298  2  0  0  0  0
293297  1  0  0  0  0
298239  1  0  0  0  0
235234  2  0  0  0  0
299300  2  0  0  0  0
298299  1  0  0  0  0
300285  1  0  0  0  0
301302  2  0  0  0  0
300301  1  0  0  0  0
287302  1  0  0  0  0
289288  1  0  0  0  0
289304  1  0  0  0  0
306291  1  0  0  0  0
289290  2  0  0  0  0
291290  1  0  0  0  0
307308  1  0  0  0  0
308309  1  0  0  0  0
309310  1  0  0  0  0
305310  2  0  0  0  0
306307  2  0  0  0  0
305306  1  0  0  0  0
311312  2  0  0  0  0
310311  1  0  0  0  0
305304  1  0  0  0  0
303304  2  0  0  0  0
313314  2  0  0  0  0
312313  1  0  0  0  0
303312  1  0  0  0  0
303302  1  0  0  0  0
315316  2  0  0  0  0
314315  1  0  0  0  0
301314  1  0  0  0  0
317318  2  0  0  0  0
316317  1  0  0  0  0
299316  1  0  0  0  0
318297  1  0  0  0  0
319320  2  0  0  0  0
318319  1  0  0  0  0
320294  1  0  0  0  0
309321  2  0  0  0  0
322323  2  0  0  0  0
323324  1  0  0  0  0
324325  2  0  0  0  0
262322  1  0  0  0  0
263325  1  0  0  0  0
326327  2  0  0  0  0
249326  1  0  0  0  0
327322  1  0  0  0  0
328329  2  0  0  0  0
329330  1  0  0  0  0
330331  2  0  0  0  0
327331  1  0  0  0  0
326328  1  0  0  0  0
332333  2  0  0  0  0
331332  1  0  0  0  0
333323  1  0  0  0  0
 49334  1  0  0  0  0
139335  1  0  0  0  0
143336  1  0  0  0  0
167337  1  0  0  0  0
180338  1  0  0  0  0
182339  1  0  0  0  0
184340  1  0  0  0  0
185341  1  0  0  0  0
188342  1  0  0  0  0
189343  1  0  0  0  0
197344  1  0  0  0  0
198345  1  0  0  0  0
204346  1  0  0  0  0
214347  1  0  0  0  0
224348  1  0  0  0  0
225349  1  0  0  0  0
228350  1  0  0  0  0
230351  1  0  0  0  0
232352  1  0  0  0  0
246353  1  0  0  0  0
248354  1  0  0  0  0
259355  1  0  0  0  0
261356  1  0  0  0  0
271357  1  0  0  0  0
273358  1  0  0  0  0
277359  1  0  0  0  0
279360  1  0  0  0  0
281361  1  0  0  0  0
292362  1  0  0  0  0
296363  1  0  0  0  0
307364  1  0  0  0  0
311365  1  0  0  0  0
313366  1  0  0  0  0
315367  1  0  0  0  0
317368  1  0  0  0  0
319369  1  0  0  0  0
320370  1  0  0  0  0
324371  1  0  0  0  0
325372  1  0  0  0  0
328373  1  0  0  0  0
329374  1  0  0  0  0
330375  1  0  0  0  0
332376  1  0  0  0  0
333377  1  0  0  0  0
M  END
